

        *** GPGPU-Sim Simulator Version 3.2.1  [build 15629] ***


               1=functional simulation only, 0=detailed performance simulator)
GPGPU-Sim: Configuration options:

-network_mode                           1 # Interconnection network mode
-inter_config_file   config_fermi_islip.icnt # Interconnection network config file
-gpgpu_ptx_use_cuobjdump                    1 # Use cuobjdump to extract ptx and sass from binaries
-gpgpu_experimental_lib_support                    0 # Try to extract code from cuda libraries [Broken because of unknown cudaGetExportTable]
-gpgpu_ptx_convert_to_ptxplus                    0 # Convert SASS (native ISA) to ptxplus and run ptxplus
-gpgpu_ptx_force_max_capability                   20 # Force maximum compute capability
-gpgpu_ptx_inst_debug_to_file                    0 # Dump executed instructions' debug information to file
-gpgpu_ptx_inst_debug_file       inst_debug.txt # Executed instructions' debug output file
-gpgpu_ptx_inst_debug_thread_uid                    1 # Thread UID for executed instructions' debug output
-gpgpu_simd_model                       1 # 1 = post-dominator
-gpgpu_shader_core_pipeline              1536:32 # shader core pipeline config, i.e., {<nthread>:<warpsize>}
-gpgpu_tex_cache:l1  4:128:24,L:R:m:N,F:128:4,128:2 # per-shader L1 texture cache  (READ-ONLY) config  {<nsets>:<bsize>:<assoc>,<rep>:<wr>:<alloc>:<wr_alloc>,<mshr>:<N>:<merge>,<mq>:<rf>}
-gpgpu_const_cache:l1 64:64:2,L:R:f:N,A:2:32,4 # per-shader L1 constant memory cache  (READ-ONLY) config  {<nsets>:<bsize>:<assoc>,<rep>:<wr>:<alloc>:<wr_alloc>,<mshr>:<N>:<merge>,<mq>} 
-gpgpu_cache:il1     4:128:4,L:R:f:N,A:2:32,4 # shader L1 instruction cache config  {<nsets>:<bsize>:<assoc>,<rep>:<wr>:<alloc>:<wr_alloc>,<mshr>:<N>:<merge>,<mq>} 
-gpgpu_cache:dl1     32:128:4,L:L:m:N,A:32:8,8 # per-shader L1 data cache config  {<nsets>:<bsize>:<assoc>,<rep>:<wr>:<alloc>:<wr_alloc>,<mshr>:<N>:<merge>,<mq> | none}
-gpgpu_perfect_mem                      0 # enable perfect memory mode (no cache miss)
-n_regfile_gating_group                    4 # group of lanes that should be read/written together)
-gpgpu_clock_gated_reg_file                    0 # enable clock gated reg file for power calculations
-gpgpu_clock_gated_lanes                    0 # enable clock gated lanes for power calculations
-gpgpu_shader_registers                32768 # Number of registers per shader core. Limits number of concurrent CTAs. (default 8192)
-gpgpu_shader_cta                       8 # Maximum number of concurrent CTAs in shader (default 8)
-gpgpu_n_clusters                      14 # number of processing clusters
-gpgpu_n_cores_per_cluster                    1 # number of simd cores per cluster
-gpgpu_n_cluster_ejection_buffer_size                    8 # number of packets in ejection buffer
-gpgpu_n_ldst_response_buffer_size                    2 # number of response packets in ld/st unit ejection buffer
-gpgpu_shmem_size                   16384 # Size of shared memory per shader core (default 16kB)
-gpgpu_shmem_num_banks                   32 # Number of banks in the shared memory in each shader core (default 16)
-gpgpu_shmem_limited_broadcast                    0 # Limit shared memory to do one broadcast per cycle (default on)
-gpgpu_shmem_warp_parts                    1 # Number of portions a warp is divided into for shared memory bank conflict check 
-gpgpu_warpdistro_shader                   -1 # Specify which shader core to collect the warp size distribution from
-gpgpu_warp_issue_shader                    0 # Specify which shader core to collect the warp issue distribution from
-gpgpu_local_mem_map                    1 # Mapping from local memory space address to simulated GPU physical address space (default = enabled)
-gpgpu_num_reg_banks                   16 # Number of register banks (default = 8)
-gpgpu_reg_bank_use_warp_id                    0 # Use warp ID in mapping registers to banks (default = off)
-gpgpu_operand_collector_num_units_sp                    6 # number of collector units (default = 4)
-gpgpu_operand_collector_num_units_sfu                    8 # number of collector units (default = 4)
-gpgpu_operand_collector_num_units_mem                    2 # number of collector units (default = 2)
-gpgpu_operand_collector_num_units_gen                    0 # number of collector units (default = 0)
-gpgpu_operand_collector_num_in_ports_sp                    2 # number of collector unit in ports (default = 1)
-gpgpu_operand_collector_num_in_ports_sfu                    1 # number of collector unit in ports (default = 1)
-gpgpu_operand_collector_num_in_ports_mem                    1 # number of collector unit in ports (default = 1)
-gpgpu_operand_collector_num_in_ports_gen                    0 # number of collector unit in ports (default = 0)
-gpgpu_operand_collector_num_out_ports_sp                    2 # number of collector unit in ports (default = 1)
-gpgpu_operand_collector_num_out_ports_sfu                    1 # number of collector unit in ports (default = 1)
-gpgpu_operand_collector_num_out_ports_mem                    1 # number of collector unit in ports (default = 1)
-gpgpu_operand_collector_num_out_ports_gen                    0 # number of collector unit in ports (default = 0)
-gpgpu_coalesce_arch                   13 # Coalescing arch (default = 13, anything else is off for now)
-gpgpu_num_sched_per_core                    2 # Number of warp schedulers per core
-gpgpu_max_insn_issue_per_warp                    1 # Max number of instructions that can be issued per warp in one cycle by scheduler
-gpgpu_simt_core_sim_order                    1 # Select the simulation order of cores in a cluster (0=Fix, 1=Round-Robin)
-gpgpu_pipeline_widths        2,1,1,2,1,1,2 # Pipeline widths ID_OC_SP,ID_OC_SFU,ID_OC_MEM,OC_EX_SP,OC_EX_SFU,OC_EX_MEM,EX_WB
-gpgpu_num_sp_units                     2 # Number of SP units (default=1)
-gpgpu_num_sfu_units                    1 # Number of SF units (default=1)
-gpgpu_num_mem_units                    1 # Number if ldst units (default=1) WARNING: not hooked up to anything
-gpgpu_scheduler                      lrr # Scheduler configuration: < lrr | gto | two_level_active > If two_level_active:<num_active_warps>:<inner_prioritization>:<outer_prioritization>For complete list of prioritization values see shader.h enum scheduler_prioritization_typeDefault: gto
-gpgpu_dram_scheduler                    1 # 0 = fifo, 1 = FR-FCFS (defaul)
-gpgpu_dram_partition_queues              8:8:8:8 # i2$:$2d:d2$:$2i
-l2_ideal                               0 # Use a ideal L2 cache that always hit
-gpgpu_cache:dl2     64:128:16,L:B:m:W,A:32:4,4 # unified banked L2 data cache config  {<nsets>:<bsize>:<assoc>,<rep>:<wr>:<alloc>:<wr_alloc>,<mshr>:<N>:<merge>,<mq>}
-gpgpu_cache:dl2_texture_only                    0 # L2 cache used for texture only
-gpgpu_n_mem                            5 # number of memory modules (e.g. memory controllers) in gpu
-gpgpu_n_mem_per_ctrlr                    2 # number of memory chips per memory controller
-gpgpu_memlatency_stat                   14 # track and display latency statistics 0x2 enables MC, 0x4 enables queue logs
-gpgpu_frfcfs_dram_sched_queue_size                   16 # 0 = unlimited (default); # entries per chip
-gpgpu_dram_return_queue_size                    0 # 0 = unlimited (default); # entries per chip
-gpgpu_dram_buswidth                    4 # default = 4 bytes (8 bytes per cycle at DDR)
-gpgpu_dram_burst_length                    8 # Burst length of each DRAM request (default = 4 data bus cycle)
-dram_data_command_freq_ratio                    4 # Frequency ratio between DRAM data bus and command bus (default = 2 times, i.e. DDR)
-gpgpu_dram_timing_opt nbk=16:CCD=2:RRD=6:RCD=12:RAS=28:RP=12:RC=40: CL=12:WL=4:CDLR=5:WR=12:nbkgrp=4:CCDL=3:RTPL=2 # DRAM timing parameters = {nbk:tCCD:tRRD:tRCD:tRAS:tRP:tRC:CL:WL:tCDLR:tWR:nbkgrp:tCCDL:tRTPL}
-rop_latency                          120 # ROP queue latency (default 85)
-dram_latency                         100 # DRAM latency (default 30)
-gpgpu_mem_addr_mapping dramid@8;00000000.00000000.00000000.00000000.0000RRRR.RRRRRRRR.BBBBCCCC.CCSSSSSS # mapping memory address to dram model {dramid@<start bit>;<memory address map>}
-gpgpu_mem_addr_test                    0 # run sweep test to check address mapping for aliased address
-gpgpu_mem_address_mask                    1 # 0 = old addressing mask, 1 = new addressing mask, 2 = new add. mask + flipped bank sel and chip sel bits
-gpuwattch_xml_file         gpuwattch.xml # GPUWattch XML file
-power_simulation_enabled                    1 # Turn on power simulator (1=On, 0=Off)
-power_per_cycle_dump                    0 # Dump detailed power output each cycle
-power_trace_enabled                    1 # produce a file for the power trace (1=On, 0=Off)
-power_trace_zlevel                     6 # Compression level of the power trace output log (0=no comp, 9=highest)
-steady_power_levels_enabled                    0 # produce a file for the steady power levels (1=On, 0=Off)
-steady_state_definition                  8:4 # allowed deviation:number of samples
-gpgpu_max_cycle                        0 # terminates gpu simulation early (0 = no limit)
-gpgpu_max_insn                         0 # terminates gpu simulation early (0 = no limit)
-gpgpu_max_cta                          0 # terminates gpu simulation early (0 = no limit)
-gpgpu_runtime_stat                   500 # display runtime statistics such as dram utilization {<freq>:<flag>}
-gpgpu_flush_l1_cache                    0 # Flush L1 cache at the end of each kernel call
-gpgpu_flush_l2_cache                    0 # Flush L2 cache at the end of each kernel call
-gpgpu_deadlock_detect                    1 # Stop the simulation at deadlock (1=on (default), 0=off)
-gpgpu_ptx_instruction_classification                    0 # if enabled will classify ptx instruction types per kernel (Max 255 kernels now)
-gpgpu_ptx_sim_mode                     0 # Select between Performance (default) or Functional simulation (1)
-gpgpu_clock_domains 600.0:1200.0:600.0:750.0 # Clock Domain Frequencies in MhZ {<Core Clock>:<ICNT Clock>:<L2 Clock>:<DRAM Clock>}
-gpgpu_max_concurrent_kernel                    8 # maximum kernels that can run concurrently on GPU
-gpgpu_cflog_interval                    0 # Interval between each snapshot in control flow logger
-visualizer_enabled                     0 # Turn on visualizer output (1=On, 0=Off)
-visualizer_outputfile                 NULL # Specifies the output log file for visualizer
-visualizer_zlevel                      6 # Compression level of the visualizer output log (0=no comp, 9=highest)
-trace_enabled                          0 # Turn on traces
-trace_components                    none # comma seperated list of traces to enable. Complete list found in trace_streams.tup. Default none
-trace_sampling_core                    0 # The core which is printed using CORE_DPRINTF. Default 0
-enable_ptx_file_line_stats                    1 # Turn on PTX source line statistic profiling. (1 = On)
-ptx_line_stats_filename gpgpu_inst_stats.txt # Output file for PTX source line statistics.
-save_embedded_ptx                      0 # saves ptx files embedded in binary as <n>.ptx
-keep                                   0 # keep intermediate files created by GPGPU-Sim when interfacing with external programs
-gpgpu_ptx_save_converted_ptxplus                    0 # Saved converted ptxplus to a file
-ptx_opcode_latency_int         4,13,4,5,145 # Opcode latencies for integers <ADD,MAX,MUL,MAD,DIV>Default 1,1,19,25,145
-ptx_opcode_latency_fp          4,13,4,5,39 # Opcode latencies for single precision floating points <ADD,MAX,MUL,MAD,DIV>Default 1,1,1,1,30
-ptx_opcode_latency_dp         8,19,8,8,330 # Opcode latencies for double precision floating points <ADD,MAX,MUL,MAD,DIV>Default 8,8,8,8,335
-ptx_opcode_initiation_int            1,2,2,1,8 # Opcode initiation intervals for integers <ADD,MAX,MUL,MAD,DIV>Default 1,1,4,4,32
-ptx_opcode_initiation_fp            1,2,1,1,4 # Opcode initiation intervals for single precision floating points <ADD,MAX,MUL,MAD,DIV>Defaultff08def04caeda4fdc3262a7d7f82dfa  /tmp/tmp.z9YTtBevOU/gemm__SIZE1_1
 1,1,1,1,5
-ptx_opcode_initiation_dp         8,16,8,8,130 # Opcode initiation intervals for double precision floating points <ADD,MAX,MUL,MAD,DIV>Default 8,8,8,8,130
DRAM Timing Options:
nbk                                    16 # number of banks
CCD                                     2 # column to column delay
RRD                                     6 # minimal delay between activation of rows in different banks
RCD                                    12 # row to column delay
RAS                                    28 # time needed to activate row
RP                                     12 # time needed to precharge (deactivate) row
RC                                     40 # row cycle time
CDLR                                    5 # switching from write to read (changes tWTR)
WR                                     12 # last data-in to row precharge
CL                                     12 # CAS latency
WL                                      4 # Write latency
nbkgrp                                  4 # number of bank groups
CCDL                                    3 # column to column delay between accesses to different bank groups
RTPL                                    2 # read to precharge delay between accesses to different bank groups
addr_dec_mask[CHIP]  = 0000000000000000 	high:64 low:0
addr_dec_mask[BK]    = 000000000000f000 	high:16 low:12
addr_dec_mask[ROW]   = 000000000fff0000 	high:28 low:16
addr_dec_mask[COL]   = 0000000000000fff 	high:12 low:0
addr_dec_mask[BURST] = 000000000000003f 	high:6 low:0
*** Initializing Memory Statistics ***
self exe links to: /tmp/tmp.z9YTtBevOU/gemm__SIZE1_1
Running md5sum using "md5sum /tmp/tmp.z9YTtBevOU/gemm__SIZE1_1 "
Running cuobjdump using "$CUDA_INSTALL_PATH/bin/cuobjdump -ptx -elf -sass /tmp/tmp.z9YTtBevOU/gemm__SIZE1_1 > _cuobjdump_complete_output_fJnrnL"
Parsing file _cuobjdump_complete_output_fJnrnL
######### cuobjdump parser ########
## Adding new section PTX
Adding ptx filename: _cuobjdump_1.ptx
Adding arch: sm_13
Adding identifier: benchmarks/gemm/gemm.cu
## Adding new section ELF
Adding arch: sm_13
Adding identifier: benchmarks/gemm/gemm.cu
Done parsing!!!
Adding _cuobjdump_1.ptx with cubin handle 1
Running: cat _ptx_rSHF6Z | sed 's/.version 1.5/.version 1.4/' | sed 's/, texmode_independent//' | sed 's/\(\.extern \.const\[1\] .b8 \w\+\)\[\]/\1\[1\]/' | sed 's/const\[.\]/const\[0\]/g' > _ptx2_joYUPe

kernel '_Z11gemm_kernelPfS_S_' transfer to GPU hardware scheduler
kernel_name = _Z11gemm_kernelPfS_S_ 
kernel_launch_uid = 1 
gpu_sim_cycle = 40481116
gpu_sim_insn = 10785652736
gpu_ipc =     266.4366
gpu_tot_sim_cycle = 40481116
gpu_tot_sim_insn = 10785652736
gpu_tot_ipc =     266.4366
gpu_tot_issued_cta = 0
gpu_stall_dramfull = 110165780
gpu_stall_icnt2sh    = 122104544
gpu_total_sim_rate=296455
Cache L1D_000:	Size = 16384 B (32 Set x 4-way x 128 byte line)
		Access = 4786464, Miss = 2396736 (0.501), PendingHit = 16178 (0.00338)
Cache L1D_001:	Size = 16384 B (32 Set x 4-way x 128 byte line)
		Access = 4786464, Miss = 2396736 (0.501), PendingHit = 16210 (0.00339)
Cache L1D_002:	Size = 16384 B (32 Set x 4-way x 128 byte line)
		Access = 4852032, Miss = 2429568 (0.501), PendingHit = 16414 (0.00338)
Cache L1D_003:	Size = 16384 B (32 Set x 4-way x 128 byte line)
		Access = 4852032, Miss = 2429568 (0.501), PendingHit = 16442 (0.00339)
Cache L1D_004:	Size = 16384 B (32 Set x 4-way x 128 byte line)
		Access = 4786464, Miss = 2396736 (0.501), PendingHit = 16225 (0.00339)
Cache L1D_005:	Size = 16384 B (32 Set x 4-way x 128 byte line)
		Access = 4786464, Miss = 2396736 (0.501), PendingHit = 16211 (0.00339)
Cache L1D_006:	Size = 16384 B (32 Set x 4-way x 128 byte line)
		Access = 4786464, Miss = 2396736 (0.501), PendingHit = 16202 (0.00338)
Cache L1D_007:	Size = 16384 B (32 Set x 4-way x 128 byte line)
		Access = 4786464, Miss = 2396736 (0.501), PendingHit = 16209 (0.00339)
Cache L1D_008:	Size = 16384 B (32 Set x 4-way x 128 byte line)
		Access = 4786464, Miss = 2396736 (0.501), PendingHit = 16182 (0.00338)
Cache L1D_009:	Size = 16384 B (32 Set x 4-way x 128 byte line)
		Access = 4786464, Miss = 2396736 (0.501), PendingHit = 16206 (0.00339)
Cache L1D_010:	Size = 16384 B (32 Set x 4-way x 128 byte line)
		Access = 4786464, Miss = 2396736 (0.501), PendingHit = 16184 (0.00338)
Cache L1D_011:	Size = 16384 B (32 Set x 4-way x 128 byte line)
		Access = 4786464, Miss = 2396736 (0.501), PendingHit = 16192 (0.00338)
Cache L1D_012:	Size = 16384 B (32 Set x 4-way x 128 byte line)
		Access = 4786464, Miss = 2396736 (0.501), PendingHit = 16178 (0.00338)
Cache L1D_013:	Size = 16384 B (32 Set x 4-way x 128 byte line)
		Access = 4786464, Miss = 2396736 (0.501), PendingHit = 16190 (0.00338)
total_dl1_misses=33619968
total_dl1_accesses=67141632
total_dl1_miss_rate= 0.500732
Shader 0 dynamic_warp_id issue ditsribution:
dynamic_warp_id:
0, 1, 2, 3, 4, 5, 6, 7, 8, 9, 10, 11, 12, 13, 14, 15, 16, 17, 18, 19, 20, 21, 22, 23, 24, 25, 26, 27, 28, 29, 30, 31, 32, 33, 34, 35, 36, 37, 38, 39, 40, 41, 42, 43, 44, 45, 46, 47, 48, 49, 50, 51, 52, 53, 54, 55, 56, 57, 58, 59, 60, 61, 62, 63, 64, 65, 66, 67, 68, 69, 70, 71, 72, 73, 74, 75, 76, 77, 78, 79, 80, 81, 82, 83, 84, 85, 86, 87, 88, 89, 90, 91, 92, 93, 94, 95, 96, 97, 98, 99, 100, 101, 102, 103, 104, 105, 106, 107, 108, 109, 110, 111, 112, 113, 114, 115, 116, 117, 118, 119, 120, 121, 122, 123, 124, 125, 126, 127, 128, 129, 130, 131, 132, 133, 134, 135, 136, 137, 138, 139, 140, 141, 142, 143, 144, 145, 146, 147, 148, 149, 150, 151, 152, 153, 154, 155, 156, 157, 158, 159, 160, 161, 162, 163, 164, 165, 166, 167, 168, 169, 170, 171, 172, 173, 174, 175, 176, 177, 178, 179, 180, 181, 182, 183, 184, 185, 186, 187, 188, 189, 190, 191, 192, 193, 194, 195, 196, 197, 198, 199, 200, 201, 202, 203, 204, 205, 206, 207, 208, 209, 210, 211, 212, 213, 214, 215, 216, 217, 218, 219, 220, 221, 222, 223, 224, 225, 226, 227, 228, 229, 230, 231, 232, 233, 234, 235, 236, 237, 238, 239, 240, 241, 242, 243, 244, 245, 246, 247, 248, 249, 250, 251, 252, 253, 254, 255, 256, 257, 258, 259, 260, 261, 262, 263, 264, 265, 266, 267, 268, 269, 270, 271, 272, 273, 274, 275, 276, 277, 278, 279, 280, 281, 282, 283, 284, 285, 286, 287, 288, 289, 290, 291, 292, 293, 294, 295, 296, 297, 298, 299, 300, 301, 302, 303, 304, 305, 306, 307, 308, 309, 310, 311, 312, 313, 314, 315, 316, 317, 318, 319, 320, 321, 322, 323, 324, 325, 326, 327, 328, 329, 330, 331, 332, 333, 334, 335, 336, 337, 338, 339, 340, 341, 342, 343, 344, 345, 346, 347, 348, 349, 350, 351, 352, 353, 354, 355, 356, 357, 358, 359, 360, 361, 362, 363, 364, 365, 366, 367, 368, 369, 370, 371, 372, 373, 374, 375, 376, 377, 378, 379, 380, 381, 382, 383, 384, 385, 386, 387, 388, 389, 390, 391, 392, 393, 394, 395, 396, 397, 398, 399, 400, 401, 402, 403, 404, 405, 406, 407, 408, 409, 410, 411, 412, 413, 414, 415, 416, 417, 418, 419, 420, 421, 422, 423, 424, 425, 426, 427, 428, 429, 430, 431, 432, 433, 434, 435, 436, 437, 438, 439, 440, 441, 442, 443, 444, 445, 446, 447, 448, 449, 450, 451, 452, 453, 454, 455, 456, 457, 458, 459, 460, 461, 462, 463, 464, 465, 466, 467, 468, 469, 470, 471, 472, 473, 474, 475, 476, 477, 478, 479, 480, 481, 482, 483, 484, 485, 486, 487, 488, 489, 490, 491, 492, 493, 494, 495, 496, 497, 498, 499, 500, 501, 502, 503, 504, 505, 506, 507, 508, 509, 510, 511, 512, 513, 514, 515, 516, 517, 518, 519, 520, 521, 522, 523, 524, 525, 526, 527, 528, 529, 530, 531, 532, 533, 534, 535, 536, 537, 538, 539, 540, 541, 542, 543, 544, 545, 546, 547, 548, 549, 550, 551, 552, 553, 554, 555, 556, 557, 558, 559, 560, 561, 562, 563, 564, 565, 566, 567, 568, 569, 570, 571, 572, 573, 574, 575, 576, 577, 578, 579, 580, 581, 582, 583, 584, 585, 586, 587, 588, 589, 590, 591, 592, 593, 594, 595, 596, 597, 598, 599, 600, 601, 602, 603, 604, 605, 606, 607, 608, 609, 610, 611, 612, 613, 614, 615, 616, 617, 618, 619, 620, 621, 622, 623, 624, 625, 626, 627, 628, 629, 630, 631, 632, 633, 634, 635, 636, 637, 638, 639, 640, 641, 642, 643, 644, 645, 646, 647, 648, 649, 650, 651, 652, 653, 654, 655, 656, 657, 658, 659, 660, 661, 662, 663, 664, 665, 666, 667, 668, 669, 670, 671, 672, 673, 674, 675, 676, 677, 678, 679, 680, 681, 682, 683, 684, 685, 686, 687, 688, 689, 690, 691, 692, 693, 694, 695, 696, 697, 698, 699, 700, 701, 702, 703, 704, 705, 706, 707, 708, 709, 710, 711, 712, 713, 714, 715, 716, 717, 718, 719, 720, 721, 722, 723, 724, 725, 726, 727, 728, 729, 730, 731, 732, 733, 734, 735, 736, 737, 738, 739, 740, 741, 742, 743, 744, 745, 746, 747, 748, 749, 750, 751, 752, 753, 754, 755, 756, 757, 758, 759, 760, 761, 762, 763, 764, 765, 766, 767, 768, 769, 770, 771, 772, 773, 774, 775, 776, 777, 778, 779, 780, 781, 782, 783, 784, 785, 786, 787, 788, 789, 790, 791, 792, 793, 794, 795, 796, 797, 798, 799, 800, 801, 802, 803, 804, 805, 806, 807, 808, 809, 810, 811, 812, 813, 814, 815, 816, 817, 818, 819, 820, 821, 822, 823, 824, 825, 826, 827, 828, 829, 830, 831, 832, 833, 834, 835, 836, 837, 838, 839, 840, 841, 842, 843, 844, 845, 846, 847, 848, 849, 850, 851, 852, 853, 854, 855, 856, 857, 858, 859, 860, 861, 862, 863, 864, 865, 866, 867, 868, 869, 870, 871, 872, 873, 874, 875, 876, 877, 878, 879, 880, 881, 882, 883, 884, 885, 886, 887, 888, 889, 890, 891, 892, 893, 894, 895, 896, 897, 898, 899, 900, 901, 902, 903, 904, 905, 906, 907, 908, 909, 910, 911, 912, 913, 914, 915, 916, 917, 918, 919, 920, 921, 922, 923, 924, 925, 926, 927, 928, 929, 930, 931, 932, 933, 934, 935, 936, 937, 938, 939, 940, 941, 942, 943, 944, 945, 946, 947, 948, 949, 950, 951, 952, 953, 954, 955, 956, 957, 958, 959, 960, 961, 962, 963, 964, 965, 966, 967, 968, 969, 970, 971, 972, 973, 974, 975, 976, 977, 978, 979, 980, 981, 982, 983, 984, 985, 986, 987, 988, 989, 990, 991, 992, 993, 994, 995, 996, 997, 998, 999, 1000, 1001, 1002, 1003, 1004, 1005, 1006, 1007, 1008, 1009, 1010, 1011, 1012, 1013, 1014, 1015, 1016, 1017, 1018, 1019, 1020, 1021, 1022, 1023, 1024, 1025, 1026, 1027, 1028, 1029, 1030, 1031, 1032, 1033, 1034, 1035, 1036, 1037, 1038, 1039, 1040, 1041, 1042, 1043, 1044, 1045, 1046, 1047, 1048, 1049, 1050, 1051, 1052, 1053, 1054, 1055, 1056, 1057, 1058, 1059, 1060, 1061, 1062, 1063, 1064, 1065, 1066, 1067, 1068, 1069, 1070, 1071, 1072, 1073, 1074, 1075, 1076, 1077, 1078, 1079, 1080, 1081, 1082, 1083, 1084, 1085, 1086, 1087, 1088, 1089, 1090, 1091, 1092, 1093, 1094, 1095, 1096, 1097, 1098, 1099, 1100, 1101, 1102, 1103, 1104, 1105, 1106, 1107, 1108, 1109, 1110, 1111, 1112, 1113, 1114, 1115, 1116, 1117, 1118, 1119, 1120, 1121, 1122, 1123, 1124, 1125, 1126, 1127, 1128, 1129, 1130, 1131, 1132, 1133, 1134, 1135, 1136, 1137, 1138, 1139, 1140, 1141, 1142, 1143, 1144, 1145, 1146, 1147, 1148, 1149, 1150, 1151, 1152, 1153, 1154, 1155, 1156, 1157, 1158, 1159, 1160, 1161, 1162, 1163, 1164, 1165, 1166, 1167, 1168, 1169, 1170, 1171, 1172, 1173, 1174, 1175, 1176, 1177, 1178, 1179, 1180, 1181, 1182, 1183, 1184, 1185, 1186, 1187, 1188, 1189, 1190, 1191, 1192, 1193, 1194, 1195, 1196, 1197, 1198, 1199, 1200, 1201, 1202, 1203, 1204, 1205, 1206, 1207, 1208, 1209, 1210, 1211, 1212, 1213, 1214, 1215, 1216, 1217, 1218, 1219, 1220, 1221, 1222, 1223, 1224, 1225, 1226, 1227, 1228, 1229, 1230, 1231, 1232, 1233, 1234, 1235, 1236, 1237, 1238, 1239, 1240, 1241, 1242, 1243, 1244, 1245, 1246, 1247, 1248, 1249, 1250, 1251, 1252, 1253, 1254, 1255, 1256, 1257, 1258, 1259, 1260, 1261, 1262, 1263, 1264, 1265, 1266, 1267, 1268, 1269, 1270, 1271, 1272, 1273, 1274, 1275, 1276, 1277, 1278, 1279, 1280, 1281, 1282, 1283, 1284, 1285, 1286, 1287, 1288, 1289, 1290, 1291, 1292, 1293, 1294, 1295, 1296, 1297, 1298, 1299, 1300, 1301, 1302, 1303, 1304, 1305, 1306, 1307, 1308, 1309, 1310, 1311, 1312, 1313, 1314, 1315, 1316, 1317, 1318, 1319, 1320, 1321, 1322, 1323, 1324, 1325, 1326, 1327, 1328, 1329, 1330, 1331, 1332, 1333, 1334, 1335, 1336, 1337, 1338, 1339, 1340, 1341, 1342, 1343, 1344, 1345, 1346, 1347, 1348, 1349, 1350, 1351, 1352, 1353, 1354, 1355, 1356, 1357, 1358, 1359, 1360, 1361, 1362, 1363, 1364, 1365, 1366, 1367, 1368, 1369, 1370, 1371, 1372, 1373, 1374, 1375, 1376, 1377, 1378, 1379, 1380, 1381, 1382, 1383, 1384, 1385, 1386, 1387, 1388, 1389, 1390, 1391, 1392, 1393, 1394, 1395, 1396, 1397, 1398, 1399, 1400, 1401, 1402, 1403, 1404, 1405, 1406, 1407, 1408, 1409, 1410, 1411, 1412, 1413, 1414, 1415, 1416, 1417, 1418, 1419, 1420, 1421, 1422, 1423, 1424, 1425, 1426, 1427, 1428, 1429, 1430, 1431, 1432, 1433, 1434, 1435, 1436, 1437, 1438, 1439, 1440, 1441, 1442, 1443, 1444, 1445, 1446, 1447, 1448, 1449, 1450, 1451, 1452, 1453, 1454, 1455, 1456, 1457, 1458, 1459, 1460, 1461, 1462, 1463, 1464, 1465, 1466, 1467, 1468, 1469, 1470, 1471, 1472, 1473, 1474, 1475, 1476, 1477, 1478, 1479, 1480, 1481, 1482, 1483, 1484, 1485, 1486, 1487, 1488, 1489, 1490, 1491, 1492, 1493, 1494, 1495, 1496, 1497, 1498, 1499, 1500, 1501, 1502, 1503, 1504, 1505, 1506, 1507, 1508, 1509, 1510, 1511, 1512, 1513, 1514, 1515, 1516, 1517, 1518, 1519, 1520, 1521, 1522, 1523, 1524, 1525, 1526, 1527, 1528, 1529, 1530, 1531, 1532, 1533, 1534, 1535, 1536, 1537, 1538, 1539, 1540, 1541, 1542, 1543, 1544, 1545, 1546, 1547, 1548, 1549, 1550, 1551, 1552, 1553, 1554, 1555, 1556, 1557, 1558, 1559, 1560, 1561, 1562, 1563, 1564, 1565, 1566, 1567, 1568, 1569, 1570, 1571, 1572, 1573, 1574, 1575, 1576, 1577, 1578, 1579, 1580, 1581, 1582, 1583, 1584, 1585, 1586, 1587, 1588, 1589, 1590, 1591, 1592, 1593, 1594, 1595, 1596, 1597, 1598, 1599, 1600, 1601, 1602, 1603, 1604, 1605, 1606, 1607, 1608, 1609, 1610, 1611, 1612, 1613, 1614, 1615, 1616, 1617, 1618, 1619, 1620, 1621, 1622, 1623, 1624, 1625, 1626, 1627, 1628, 1629, 1630, 1631, 1632, 1633, 1634, 1635, 1636, 1637, 1638, 1639, 1640, 1641, 1642, 1643, 1644, 1645, 1646, 1647, 1648, 1649, 1650, 1651, 1652, 1653, 1654, 1655, 1656, 1657, 1658, 1659, 1660, 1661, 1662, 1663, 1664, 1665, 1666, 1667, 1668, 1669, 1670, 1671, 1672, 1673, 1674, 1675, 1676, 1677, 1678, 1679, 1680, 1681, 1682, 1683, 1684, 1685, 1686, 1687, 1688, 1689, 1690, 1691, 1692, 1693, 1694, 1695, 1696, 1697, 1698, 1699, 1700, 1701, 1702, 1703, 1704, 1705, 1706, 1707, 1708, 1709, 1710, 1711, 1712, 1713, 1714, 1715, 1716, 1717, 1718, 1719, 1720, 1721, 1722, 1723, 1724, 1725, 1726, 1727, 1728, 1729, 1730, 1731, 1732, 1733, 1734, 1735, 1736, 1737, 1738, 1739, 1740, 1741, 1742, 1743, 1744, 1745, 1746, 1747, 1748, 1749, 1750, 1751, 1752, 1753, 1754, 1755, 1756, 1757, 1758, 1759, 1760, 1761, 1762, 1763, 1764, 1765, 1766, 1767, 1768, 1769, 1770, 1771, 1772, 1773, 1774, 1775, 1776, 1777, 1778, 1779, 1780, 1781, 1782, 1783, 1784, 1785, 1786, 1787, 1788, 1789, 1790, 1791, 1792, 1793, 1794, 1795, 1796, 1797, 1798, 1799, 1800, 1801, 1802, 1803, 1804, 1805, 1806, 1807, 1808, 1809, 1810, 1811, 1812, 1813, 1814, 1815, 1816, 1817, 1818, 1819, 1820, 1821, 1822, 1823, 1824, 1825, 1826, 1827, 1828, 1829, 1830, 1831, 1832, 1833, 1834, 1835, 1836, 1837, 1838, 1839, 1840, 1841, 1842, 1843, 1844, 1845, 1846, 1847, 1848, 1849, 1850, 1851, 1852, 1853, 1854, 1855, 1856, 1857, 1858, 1859, 1860, 1861, 1862, 1863, 1864, 1865, 1866, 1867, 1868, 1869, 1870, 1871, 1872, 1873, 1874, 1875, 1876, 1877, 1878, 1879, 1880, 1881, 1882, 1883, 1884, 1885, 1886, 1887, 1888, 1889, 1890, 1891, 1892, 1893, 1894, 1895, 1896, 1897, 1898, 1899, 1900, 1901, 1902, 1903, 1904, 1905, 1906, 1907, 1908, 1909, 1910, 1911, 1912, 1913, 1914, 1915, 1916, 1917, 1918, 1919, 1920, 1921, 1922, 1923, 1924, 1925, 1926, 1927, 1928, 1929, 1930, 1931, 1932, 1933, 1934, 1935, 1936, 1937, 1938, 1939, 1940, 1941, 1942, 1943, 1944, 1945, 1946, 1947, 1948, 1949, 1950, 1951, 1952, 1953, 1954, 1955, 1956, 1957, 1958, 1959, 1960, 1961, 1962, 1963, 1964, 1965, 1966, 1967, 1968, 1969, 1970, 1971, 1972, 1973, 1974, 1975, 1976, 1977, 1978, 1979, 1980, 1981, 1982, 1983, 1984, 1985, 1986, 1987, 1988, 1989, 1990, 1991, 1992, 1993, 1994, 1995, 1996, 1997, 1998, 1999, 2000, 2001, 2002, 2003, 2004, 2005, 2006, 2007, 2008, 2009, 2010, 2011, 2012, 2013, 2014, 2015, 2016, 2017, 2018, 2019, 2020, 2021, 2022, 2023, 2024, 2025, 2026, 2027, 2028, 2029, 2030, 2031, 2032, 2033, 2034, 2035, 2036, 2037, 2038, 2039, 2040, 2041, 2042, 2043, 2044, 2045, 2046, 2047, 2048, 2049, 2050, 2051, 2052, 2053, 2054, 2055, 2056, 2057, 2058, 2059, 2060, 2061, 2062, 2063, 2064, 2065, 2066, 2067, 2068, 2069, 2070, 2071, 2072, 2073, 2074, 2075, 2076, 2077, 2078, 2079, 2080, 2081, 2082, 2083, 2084, 2085, 2086, 2087, 2088, 2089, 2090, 2091, 2092, 2093, 2094, 2095, 2096, 2097, 2098, 2099, 2100, 2101, 2102, 2103, 2104, 2105, 2106, 2107, 2108, 2109, 2110, 2111, 2112, 2113, 2114, 2115, 2116, 2117, 2118, 2119, 2120, 2121, 2122, 2123, 2124, 2125, 2126, 2127, 2128, 2129, 2130, 2131, 2132, 2133, 2134, 2135, 2136, 2137, 2138, 2139, 2140, 2141, 2142, 2143, 2144, 2145, 2146, 2147, 2148, 2149, 2150, 2151, 2152, 2153, 2154, 2155, 2156, 2157, 2158, 2159, 2160, 2161, 2162, 2163, 2164, 2165, 2166, 2167, 2168, 2169, 2170, 2171, 2172, 2173, 2174, 2175, 2176, 2177, 2178, 2179, 2180, 2181, 2182, 2183, 2184, 2185, 2186, 2187, 2188, 2189, 2190, 2191, 2192, 2193, 2194, 2195, 2196, 2197, 2198, 2199, 2200, 2201, 2202, 2203, 2204, 2205, 2206, 2207, 2208, 2209, 2210, 2211, 2212, 2213, 2214, 2215, 2216, 2217, 2218, 2219, 2220, 2221, 2222, 2223, 2224, 2225, 2226, 2227, 2228, 2229, 2230, 2231, 2232, 2233, 2234, 2235, 2236, 2237, 2238, 2239, 2240, 2241, 2242, 2243, 2244, 2245, 2246, 2247, 2248, 2249, 2250, 2251, 2252, 2253, 2254, 2255, 2256, 2257, 2258, 2259, 2260, 2261, 2262, 2263, 2264, 2265, 2266, 2267, 2268, 2269, 2270, 2271, 2272, 2273, 2274, 2275, 2276, 2277, 2278, 2279, 2280, 2281, 2282, 2283, 2284, 2285, 2286, 2287, 2288, 2289, 2290, 2291, 2292, 2293, 2294, 2295, 2296, 2297, 2298, 2299, 2300, 2301, 2302, 2303, 2304, 2305, 2306, 2307, 2308, 2309, 2310, 2311, 2312, 2313, 2314, 2315, 2316, 2317, 2318, 2319, 2320, 2321, 2322, 2323, 2324, 2325, 2326, 2327, 2328, 2329, 2330, 2331, 2332, 2333, 2334, 2335, 
distro:
10288, 10288, 10288, 10288, 10288, 10288, 10288, 10288, 10288, 10288, 10288, 10288, 10288, 10288, 10288, 10288, 10288, 10288, 10288, 10288, 10288, 10288, 10288, 10288, 10288, 10288, 10288, 10288, 10288, 10288, 10288, 10288, 10288, 10288, 10288, 10288, 10288, 10288, 10288, 10288, 10288, 10288, 10288, 10288, 10288, 10288, 10288, 10288, 10288, 10288, 10288, 10288, 10288, 10288, 10288, 10288, 10288, 10288, 10288, 10288, 10288, 10288, 10288, 10288, 10288, 10288, 10288, 10288, 10288, 10288, 10288, 10288, 10288, 10288, 10288, 10288, 10288, 10288, 10288, 10288, 10288, 10288, 10288, 10288, 10288, 10288, 10288, 10288, 10288, 10288, 10288, 10288, 10288, 10288, 10288, 10288, 10288, 10288, 10288, 10288, 10288, 10288, 10288, 10288, 10288, 10288, 10288, 10288, 10288, 10288, 10288, 10288, 10288, 10288, 10288, 10288, 10288, 10288, 10288, 10288, 10288, 10288, 10288, 10288, 10288, 10288, 10288, 10288, 10288, 10288, 10288, 10288, 10288, 10288, 10288, 10288, 10288, 10288, 10288, 10288, 10288, 10288, 10288, 10288, 10288, 10288, 10288, 10288, 10288, 10288, 10288, 10288, 10288, 10288, 10288, 10288, 10288, 10288, 10288, 10288, 10288, 10288, 10288, 10288, 10288, 10288, 10288, 10288, 10288, 10288, 10288, 10288, 10288, 10288, 10288, 10288, 10288, 10288, 10288, 10288, 10288, 10288, 10288, 10288, 10288, 10288, 10288, 10288, 10288, 10288, 10288, 10288, 10288, 10288, 10288, 10288, 10288, 10288, 10288, 10288, 10288, 10288, 10288, 10288, 10288, 10288, 10288, 10288, 10288, 10288, 10288, 10288, 10288, 10288, 10288, 10288, 10288, 10288, 10288, 10288, 10288, 10288, 10288, 10288, 10288, 10288, 10288, 10288, 10288, 10288, 10288, 10288, 10288, 10288, 10288, 10288, 10288, 10288, 10288, 10288, 10288, 10288, 10288, 10288, 10288, 10288, 10288, 10288, 10288, 10288, 10288, 10288, 10288, 10288, 10288, 10288, 10288, 10288, 10288, 10288, 10288, 10288, 10288, 10288, 10288, 10288, 10288, 10288, 10288, 10288, 10288, 10288, 10288, 10288, 10288, 10288, 10288, 10288, 10288, 10288, 10288, 10288, 10288, 10288, 10288, 10288, 10288, 10288, 10288, 10288, 10288, 10288, 10288, 10288, 10288, 10288, 10288, 10288, 10288, 10288, 10288, 10288, 10288, 10288, 10288, 10288, 10288, 10288, 10288, 10288, 10288, 10288, 10288, 10288, 10288, 10288, 10288, 10288, 10288, 10288, 10288, 10288, 10288, 10288, 10288, 10288, 10288, 10288, 10288, 10288, 10288, 10288, 10288, 10288, 10288, 10288, 10288, 10288, 10288, 10288, 10288, 10288, 10288, 10288, 10288, 10288, 10288, 10288, 10288, 10288, 10288, 10288, 10288, 10288, 10288, 10288, 10288, 10288, 10288, 10288, 10288, 10288, 10288, 10288, 10288, 10288, 10288, 10288, 10288, 10288, 10288, 10288, 10288, 10288, 10288, 10288, 10288, 10288, 10288, 10288, 10288, 10288, 10288, 10288, 10288, 10288, 10288, 10288, 10288, 10288, 10288, 10288, 10288, 10288, 10288, 10288, 10288, 10288, 10288, 10288, 10288, 10288, 10288, 10288, 10288, 10288, 10288, 10288, 10288, 10288, 10288, 10288, 10288, 10288, 10288, 10288, 10288, 10288, 10288, 10288, 10288, 10288, 10288, 10288, 10288, 10288, 10288, 10288, 10288, 10288, 10288, 10288, 10288, 10288, 10288, 10288, 10288, 10288, 10288, 10288, 10288, 10288, 10288, 10288, 10288, 10288, 10288, 10288, 10288, 10288, 10288, 10288, 10288, 10288, 10288, 10288, 10288, 10288, 10288, 10288, 10288, 10288, 10288, 10288, 10288, 10288, 10288, 10288, 10288, 10288, 10288, 10288, 10288, 10288, 10288, 10288, 10288, 10288, 10288, 10288, 10288, 10288, 10288, 10288, 10288, 10288, 10288, 10288, 10288, 10288, 10288, 10288, 10288, 10288, 10288, 10288, 10288, 10288, 10288, 10288, 10288, 10288, 10288, 10288, 10288, 10288, 10288, 10288, 10288, 10288, 10288, 10288, 10288, 10288, 10288, 10288, 10288, 10288, 10288, 10288, 10288, 10288, 10288, 10288, 10288, 10288, 10288, 10288, 10288, 10288, 10288, 10288, 10288, 10288, 10288, 10288, 10288, 10288, 10288, 10288, 10288, 10288, 10288, 10288, 10288, 10288, 10288, 10288, 10288, 10288, 10288, 10288, 10288, 10288, 10288, 10288, 10288, 10288, 10288, 10288, 10288, 10288, 10288, 10288, 10288, 10288, 10288, 10288, 10288, 10288, 10288, 10288, 10288, 10288, 10288, 10288, 10288, 10288, 10288, 10288, 10288, 10288, 10288, 10288, 10288, 10288, 10288, 10288, 10288, 10288, 10288, 10288, 10288, 10288, 10288, 10288, 10288, 10288, 10288, 10288, 10288, 10288, 10288, 10288, 10288, 10288, 10288, 10288, 10288, 10288, 10288, 10288, 10288, 10288, 10288, 10288, 10288, 10288, 10288, 10288, 10288, 10288, 10288, 10288, 10288, 10288, 10288, 10288, 10288, 10288, 10288, 10288, 10288, 10288, 10288, 10288, 10288, 10288, 10288, 10288, 10288, 10288, 10288, 10288, 10288, 10288, 10288, 10288, 10288, 10288, 10288, 10288, 10288, 10288, 10288, 10288, 10288, 10288, 10288, 10288, 10288, 10288, 10288, 10288, 10288, 10288, 10288, 10288, 10288, 10288, 10288, 10288, 10288, 10288, 10288, 10288, 10288, 10288, 10288, 10288, 10288, 10288, 10288, 10288, 10288, 10288, 10288, 10288, 10288, 10288, 10288, 10288, 10288, 10288, 10288, 10288, 10288, 10288, 10288, 10288, 10288, 10288, 10288, 10288, 10288, 10288, 10288, 10288, 10288, 10288, 10288, 10288, 10288, 10288, 10288, 10288, 10288, 10288, 10288, 10288, 10288, 10288, 10288, 10288, 10288, 10288, 10288, 10288, 10288, 10288, 10288, 10288, 10288, 10288, 10288, 10288, 10288, 10288, 10288, 10288, 10288, 10288, 10288, 10288, 10288, 10288, 10288, 10288, 10288, 10288, 10288, 10288, 10288, 10288, 10288, 10288, 10288, 10288, 10288, 10288, 10288, 10288, 10288, 10288, 10288, 10288, 10288, 10288, 10288, 10288, 10288, 10288, 10288, 10288, 10288, 10288, 10288, 10288, 10288, 10288, 10288, 10288, 10288, 10288, 10288, 10288, 10288, 10288, 10288, 10288, 10288, 10288, 10288, 10288, 10288, 10288, 10288, 10288, 10288, 10288, 10288, 10288, 10288, 10288, 10288, 10288, 10288, 10288, 10288, 10288, 10288, 10288, 10288, 10288, 10288, 10288, 10288, 10288, 10288, 10288, 10288, 10288, 10288, 10288, 10288, 10288, 10288, 10288, 10288, 10288, 10288, 10288, 10288, 10288, 10288, 10288, 10288, 10288, 10288, 10288, 10288, 10288, 10288, 10288, 10288, 10288, 10288, 10288, 10288, 10288, 10288, 10288, 10288, 10288, 10288, 10288, 10288, 10288, 10288, 10288, 10288, 10288, 10288, 10288, 10288, 10288, 10288, 10288, 10288, 10288, 10288, 10288, 10288, 10288, 10288, 10288, 10288, 10288, 10288, 10288, 10288, 10288, 10288, 10288, 10288, 10288, 10288, 10288, 10288, 10288, 10288, 10288, 10288, 10288, 10288, 10288, 10288, 10288, 10288, 10288, 10288, 10288, 10288, 10288, 10288, 10288, 10288, 10288, 10288, 10288, 10288, 10288, 10288, 10288, 10288, 10288, 10288, 10288, 10288, 10288, 10288, 10288, 10288, 10288, 10288, 10288, 10288, 10288, 10288, 10288, 10288, 10288, 10288, 10288, 10288, 10288, 10288, 10288, 10288, 10288, 10288, 10288, 10288, 10288, 10288, 10288, 10288, 10288, 10288, 10288, 10288, 10288, 10288, 10288, 10288, 10288, 10288, 10288, 10288, 10288, 10288, 10288, 10288, 10288, 10288, 10288, 10288, 10288, 10288, 10288, 10288, 10288, 10288, 10288, 10288, 10288, 10288, 10288, 10288, 10288, 10288, 10288, 10288, 10288, 10288, 10288, 10288, 10288, 10288, 10288, 10288, 10288, 10288, 10288, 10288, 10288, 10288, 10288, 10288, 10288, 10288, 10288, 10288, 10288, 10288, 10288, 10288, 10288, 10288, 10288, 10288, 10288, 10288, 10288, 10288, 10288, 10288, 10288, 10288, 10288, 10288, 10288, 10288, 10288, 10288, 10288, 10288, 10288, 10288, 10288, 10288, 10288, 10288, 10288, 10288, 10288, 10288, 10288, 10288, 10288, 10288, 10288, 10288, 10288, 10288, 10288, 10288, 10288, 10288, 10288, 10288, 10288, 10288, 10288, 10288, 10288, 10288, 10288, 10288, 10288, 10288, 10288, 10288, 10288, 10288, 10288, 10288, 10288, 10288, 10288, 10288, 10288, 10288, 10288, 10288, 10288, 10288, 10288, 10288, 10288, 10288, 10288, 10288, 10288, 10288, 10288, 10288, 10288, 10288, 10288, 10288, 10288, 10288, 10288, 10288, 10288, 10288, 10288, 10288, 10288, 10288, 10288, 10288, 10288, 10288, 10288, 10288, 10288, 10288, 10288, 10288, 10288, 10288, 10288, 10288, 10288, 10288, 10288, 10288, 10288, 10288, 10288, 10288, 10288, 10288, 10288, 10288, 10288, 10288, 10288, 10288, 10288, 10288, 10288, 10288, 10288, 10288, 10288, 10288, 10288, 10288, 10288, 10288, 10288, 10288, 10288, 10288, 10288, 10288, 10288, 10288, 10288, 10288, 10288, 10288, 10288, 10288, 10288, 10288, 10288, 10288, 10288, 10288, 10288, 10288, 10288, 10288, 10288, 10288, 10288, 10288, 10288, 10288, 10288, 10288, 10288, 10288, 10288, 10288, 10288, 10288, 10288, 10288, 10288, 10288, 10288, 10288, 10288, 10288, 10288, 10288, 10288, 10288, 10288, 10288, 10288, 10288, 10288, 10288, 10288, 10288, 10288, 10288, 10288, 10288, 10288, 10288, 10288, 10288, 10288, 10288, 10288, 10288, 10288, 10288, 10288, 10288, 10288, 10288, 10288, 10288, 10288, 10288, 10288, 10288, 10288, 10288, 10288, 10288, 10288, 10288, 10288, 10288, 10288, 10288, 10288, 10288, 10288, 10288, 10288, 10288, 10288, 10288, 10288, 10288, 10288, 10288, 10288, 10288, 10288, 10288, 10288, 10288, 10288, 10288, 10288, 10288, 10288, 10288, 10288, 10288, 10288, 10288, 10288, 10288, 10288, 10288, 10288, 10288, 10288, 10288, 10288, 10288, 10288, 10288, 10288, 10288, 10288, 10288, 10288, 10288, 10288, 10288, 10288, 10288, 10288, 10288, 10288, 10288, 10288, 10288, 10288, 10288, 10288, 10288, 10288, 10288, 10288, 10288, 10288, 10288, 10288, 10288, 10288, 10288, 10288, 10288, 10288, 10288, 10288, 10288, 10288, 10288, 10288, 10288, 10288, 10288, 10288, 10288, 10288, 10288, 10288, 10288, 10288, 10288, 10288, 10288, 10288, 10288, 10288, 10288, 10288, 10288, 10288, 10288, 10288, 10288, 10288, 10288, 10288, 10288, 10288, 10288, 10288, 10288, 10288, 10288, 10288, 10288, 10288, 10288, 10288, 10288, 10288, 10288, 10288, 10288, 10288, 10288, 10288, 10288, 10288, 10288, 10288, 10288, 10288, 10288, 10288, 10288, 10288, 10288, 10288, 10288, 10288, 10288, 10288, 10288, 10288, 10288, 10288, 10288, 10288, 10288, 10288, 10288, 10288, 10288, 10288, 10288, 10288, 10288, 10288, 10288, 10288, 10288, 10288, 10288, 10288, 10288, 10288, 10288, 10288, 10288, 10288, 10288, 10288, 10288, 10288, 10288, 10288, 10288, 10288, 10288, 10288, 10288, 10288, 10288, 10288, 10288, 10288, 10288, 10288, 10288, 10288, 10288, 10288, 10288, 10288, 10288, 10288, 10288, 10288, 10288, 10288, 10288, 10288, 10288, 10288, 10288, 10288, 10288, 10288, 10288, 10288, 10288, 10288, 10288, 10288, 10288, 10288, 10288, 10288, 10288, 10288, 10288, 10288, 10288, 10288, 10288, 10288, 10288, 10288, 10288, 10288, 10288, 10288, 10288, 10288, 10288, 10288, 10288, 10288, 10288, 10288, 10288, 10288, 10288, 10288, 10288, 10288, 10288, 10288, 10288, 10288, 10288, 10288, 10288, 10288, 10288, 10288, 10288, 10288, 10288, 10288, 10288, 10288, 10288, 10288, 10288, 10288, 10288, 10288, 10288, 10288, 10288, 10288, 10288, 10288, 10288, 10288, 10288, 10288, 10288, 10288, 10288, 10288, 10288, 10288, 10288, 10288, 10288, 10288, 10288, 10288, 10288, 10288, 10288, 10288, 10288, 10288, 10288, 10288, 10288, 10288, 10288, 10288, 10288, 10288, 10288, 10288, 10288, 10288, 10288, 10288, 10288, 10288, 10288, 10288, 10288, 10288, 10288, 10288, 10288, 10288, 10288, 10288, 10288, 10288, 10288, 10288, 10288, 10288, 10288, 10288, 10288, 10288, 10288, 10288, 10288, 10288, 10288, 10288, 10288, 10288, 10288, 10288, 10288, 10288, 10288, 10288, 10288, 10288, 10288, 10288, 10288, 10288, 10288, 10288, 10288, 10288, 10288, 10288, 10288, 10288, 10288, 10288, 10288, 10288, 10288, 10288, 10288, 10288, 10288, 10288, 10288, 10288, 10288, 10288, 10288, 10288, 10288, 10288, 10288, 10288, 10288, 10288, 10288, 10288, 10288, 10288, 10288, 10288, 10288, 10288, 10288, 10288, 10288, 10288, 10288, 10288, 10288, 10288, 10288, 10288, 10288, 10288, 10288, 10288, 10288, 10288, 10288, 10288, 10288, 10288, 10288, 10288, 10288, 10288, 10288, 10288, 10288, 10288, 10288, 10288, 10288, 10288, 10288, 10288, 10288, 10288, 10288, 10288, 10288, 10288, 10288, 10288, 10288, 10288, 10288, 10288, 10288, 10288, 10288, 10288, 10288, 10288, 10288, 10288, 10288, 10288, 10288, 10288, 10288, 10288, 10288, 10288, 10288, 10288, 10288, 10288, 10288, 10288, 10288, 10288, 10288, 10288, 10288, 10288, 10288, 10288, 10288, 10288, 10288, 10288, 10288, 10288, 10288, 10288, 10288, 10288, 10288, 10288, 10288, 10288, 10288, 10288, 10288, 10288, 10288, 10288, 10288, 10288, 10288, 10288, 10288, 10288, 10288, 10288, 10288, 10288, 10288, 10288, 10288, 10288, 10288, 10288, 10288, 10288, 10288, 10288, 10288, 10288, 10288, 10288, 10288, 10288, 10288, 10288, 10288, 10288, 10288, 10288, 10288, 10288, 10288, 10288, 10288, 10288, 10288, 10288, 10288, 10288, 10288, 10288, 10288, 10288, 10288, 10288, 10288, 10288, 10288, 10288, 10288, 10288, 10288, 10288, 10288, 10288, 10288, 10288, 10288, 10288, 10288, 10288, 10288, 10288, 10288, 10288, 10288, 10288, 10288, 10288, 10288, 10288, 10288, 10288, 10288, 10288, 10288, 10288, 10288, 10288, 10288, 10288, 10288, 10288, 10288, 10288, 10288, 10288, 10288, 10288, 10288, 10288, 10288, 10288, 10288, 10288, 10288, 10288, 10288, 10288, 10288, 10288, 10288, 10288, 10288, 10288, 10288, 10288, 10288, 10288, 10288, 10288, 10288, 10288, 10288, 10288, 10288, 10288, 10288, 10288, 10288, 10288, 10288, 10288, 10288, 10288, 10288, 10288, 10288, 10288, 10288, 10288, 10288, 10288, 10288, 10288, 10288, 10288, 10288, 10288, 10288, 10288, 10288, 10288, 10288, 10288, 10288, 10288, 10288, 10288, 10288, 10288, 10288, 10288, 10288, 10288, 10288, 10288, 10288, 10288, 10288, 10288, 10288, 10288, 10288, 10288, 10288, 10288, 10288, 10288, 10288, 10288, 10288, 10288, 10288, 10288, 10288, 10288, 10288, 10288, 10288, 10288, 10288, 10288, 10288, 10288, 10288, 10288, 10288, 10288, 10288, 10288, 10288, 10288, 10288, 10288, 10288, 10288, 10288, 10288, 10288, 10288, 10288, 10288, 10288, 10288, 10288, 10288, 10288, 10288, 10288, 10288, 10288, 10288, 10288, 10288, 10288, 10288, 10288, 10288, 10288, 10288, 10288, 10288, 10288, 10288, 10288, 10288, 10288, 10288, 10288, 10288, 10288, 10288, 10288, 10288, 10288, 10288, 10288, 10288, 10288, 10288, 10288, 10288, 10288, 10288, 10288, 10288, 10288, 10288, 10288, 10288, 10288, 10288, 10288, 10288, 10288, 10288, 10288, 10288, 10288, 10288, 10288, 10288, 10288, 10288, 10288, 10288, 10288, 10288, 10288, 10288, 10288, 10288, 10288, 10288, 10288, 10288, 10288, 10288, 10288, 10288, 10288, 10288, 10288, 10288, 10288, 10288, 10288, 10288, 10288, 10288, 10288, 10288, 10288, 10288, 10288, 10288, 10288, 10288, 10288, 10288, 10288, 10288, 10288, 10288, 10288, 10288, 10288, 10288, 10288, 10288, 10288, 10288, 10288, 10288, 10288, 10288, 10288, 10288, 10288, 10288, 10288, 10288, 10288, 10288, 10288, 10288, 10288, 10288, 10288, 10288, 10288, 10288, 10288, 10288, 10288, 10288, 10288, 10288, 10288, 10288, 10288, 10288, 10288, 10288, 10288, 10288, 10288, 10288, 10288, 10288, 10288, 10288, 10288, 10288, 10288, 10288, 10288, 10288, 10288, 10288, 10288, 10288, 10288, 10288, 10288, 10288, 10288, 10288, 10288, 10288, 10288, 10288, 10288, 10288, 10288, 10288, 10288, 10288, 10288, 10288, 10288, 10288, 10288, 10288, 10288, 10288, 10288, 10288, 10288, 10288, 10288, 10288, 10288, 10288, 10288, 10288, 10288, 10288, 10288, 10288, 10288, 10288, 10288, 10288, 10288, 10288, 10288, 10288, 10288, 10288, 10288, 10288, 10288, 10288, 10288, 10288, 10288, 10288, 10288, 10288, 10288, 10288, 10288, 10288, 10288, 10288, 10288, 10288, 10288, 10288, 10288, 10288, 10288, 10288, 10288, 10288, 10288, 10288, 10288, 10288, 10288, 10288, 10288, 10288, 10288, 10288, 10288, 10288, 10288, 10288, 10288, 10288, 10288, 10288, 10288, 10288, 10288, 10288, 10288, 10288, 10288, 10288, 10288, 10288, 10288, 10288, 10288, 10288, 10288, 10288, 10288, 10288, 10288, 10288, 10288, 10288, 10288, 10288, 10288, 10288, 10288, 10288, 10288, 10288, 10288, 10288, 10288, 10288, 10288, 10288, 10288, 10288, 10288, 10288, 10288, 10288, 10288, 10288, 10288, 10288, 10288, 10288, 10288, 10288, 10288, 10288, 10288, 10288, 10288, 10288, 10288, 10288, 10288, 10288, 10288, 10288, 10288, 10288, 10288, 10288, 10288, 10288, 10288, 10288, 10288, 10288, 10288, 10288, 10288, 10288, 10288, 10288, 10288, 10288, 10288, 10288, 10288, 10288, 10288, 10288, 10288, 10288, 10288, 10288, 10288, 10288, 10288, 10288, 10288, 10288, 10288, 10288, 10288, 10288, 10288, 10288, 10288, 10288, 10288, 10288, 10288, 10288, 10288, 10288, 10288, 10288, 10288, 10288, 10288, 10288, 10288, 10288, 10288, 10288, 10288, 10288, 10288, 10288, 10288, 10288, 10288, 10288, 10288, 10288, 10288, 10288, 10288, 10288, 10288, 10288, 10288, 10288, 10288, 10288, 10288, 10288, 10288, 10288, 10288, 10288, 10288, 10288, 10288, 10288, 10288, 10288, 10288, 10288, 10288, 10288, 10288, 10288, 
gpgpu_n_tot_thrd_icount = 10787749888
gpgpu_n_tot_w_icount = 337117184
gpgpu_n_icache_hits = 202080256
gpgpu_n_icache_misses = 1486
gpgpu_n_l1dcache_read_hits = 33294441
gpgpu_n_l1dcache_read_misses = 33847191
gpgpu_n_l1dcache_write_accesses = 32768
gpgpu_n_l1dcache_wirte_misses = 32768
gpgpu_n_tcache_hits = 0
gpgpu_n_tcache_misses = 0
gpgpu_n_ccache_hits = 97856
gpgpu_n_ccache_misses = 448
gpgpu_n_stall_shd_mem = 36178983
gpgpu_n_mem_read_local = 0
gpgpu_n_mem_write_local = 0
gpgpu_n_mem_read_global = 33619968
gpgpu_n_mem_write_global = 32768
gpgpu_n_mem_texture = 0
gpgpu_n_mem_const = 14
gpgpu_n_load_insn  = 2097152
gpgpu_n_store_insn = 2097152
gpgpu_n_shmem_insn = 0
gpgpu_n_tex_insn = 0
gpgpu_n_const_mem_insn = 0
gpgpu_n_param_mem_insn = 6291456
gpgpu_n_shmem_bkconflict = 0
gpgpu_n_cache_bkconflict = 0
gpgpu_n_intrawarp_mshr_merge = 0
gpgpu_n_cmem_portconflict = 0
gpgpu_stall_shd_mem[c_mem][bk_conf] = 0
gpgpu_stall_shd_mem[c_mem][mshr_rc] = 0
gpgpu_stall_shd_mem[c_mem][icnt_rc] = 0
gpgpu_stall_shd_mem[t_mem][mshr_rc] = 0
gpgpu_stall_shd_mem[t_mem][icnt_rc] = 0
gpgpu_stall_shd_mem[s_mem][bk_conf] = 0
gpgpu_stall_shd_mem[gl_mem][bk_conf] = 0
gpgpu_stall_shd_mem[gl_mem][coal_stall] = 36178983
gpgpu_stall_shd_mem[g_mem_ld][mshr_rc] = 0
gpgpu_stall_shd_mem[g_mem_ld][icnt_rc] = 0
gpgpu_stall_shd_mem[g_mem_ld][wb_icnt_rc] = 0
gpgpu_stall_shd_mem[g_mem_ld][wb_rsrv_fail] = 0
gpgpu_stall_shd_mem[g_mem_st][mshr_rc] = 0
gpgpu_stall_shd_mem[g_mem_st][icnt_rc] = 0
gpgpu_stall_shd_mem[g_mem_st][wb_icnt_rc] = 0
gpgpu_stall_shd_mem[g_mem_st][wb_rsrv_fail] = 0
gpgpu_stall_shd_mem[l_mem_ld][mshr_rc] = 0
gpgpu_stall_shd_mem[l_mem_ld][icnt_rc] = 0
gpgpu_stall_shd_mem[l_mem_ld][wb_icnt_rc] = 0
gpgpu_stall_shd_mem[l_mem_ld][wb_rsrv_fail] = 0
gpgpu_stall_shd_mem[l_mem_st][mshr_rc] = 0
gpgpu_stall_shd_mem[l_mem_st][icnt_rc] = 0
gpgpu_stall_shd_mem[l_mem_ld][wb_icnt_rc] = 0
gpgpu_stall_shd_mem[l_mem_ld][wb_rsrv_fail] = 0
gpu_reg_bank_conflict_stalls = 0
Warp Occupancy Distribution:
Stall:35099526	W0_Idle:1728649	W0_Scoreboard:752466899	W1:0	W2:0	W3:0	W4:0	W5:0	W6:0	W7:0	W8:0	W9:0	W10:0	W11:0	W12:0	W13:0	W14:0	W15:0	W16:0	W17:0	W18:0	W19:0	W20:0	W21:0	W22:0	W23:0	W24:0	W25:0	W26:0	W27:0	W28:0	W29:0	W30:0	W31:0	W32:337117184
maxmrqlatency = 445 
maxdqlatency = 0 
maxmflatency = 1907 
averagemflatency = 493 
max_icnt2mem_latency = 1553 
max_icnt2sh_latency = 40481115 
mrq_lat_table:2099306 	252554 	86058 	29771 	30501 	19630 	20456 	17155 	478 	0 	0 	0 	0 	0 	0 	0 	0 	0 	0 	0 	0 	0 	0 	0 	0 	0 	0 	0 	0 	0 	0 	0 	
dq_lat_table:0 	0 	0 	0 	0 	0 	0 	0 	0 	0 	0 	0 	0 	0 	0 	0 	0 	0 	0 	0 	0 	0 	0 	0 	0 	0 	0 	0 	0 	0 	0 	0 	
mf_lat_table:0 	0 	0 	0 	0 	0 	33406 	1426696 	18509414 	13515517 	167717 	0 	0 	0 	0 	0 	0 	0 	0 	0 	0 	0 	0 	0 	0 	0 	0 	0 	0 	0 	0 	0 	
icnt2mem_lat_table:31 	1860730 	313088 	469125 	992450 	2097578 	4996496 	10601844 	10713660 	1603761 	4043 	0 	0 	0 	0 	0 	0 	0 	0 	0 	0 	0 	0 	0 	
icnt2sh_lat_table:0 	1888069 	17540170 	13993391 	198155 	197 	0 	0 	0 	0 	0 	0 	0 	0 	0 	0 	0 	0 	0 	448 	896 	1792 	3584 	6720 	
mf_lat_pw_table:13440 	5888 	0 	0 	0 	0 	0 	666 	46505 	33770 	14 	0 	0 	0 	0 	0 	0 	0 	0 	0 	0 	0 	0 	0 	0 	0 	0 	0 	0 	0 	0 	0 	
maximum concurrent accesses to same row:
dram[0]:        64        64        64        56        64        64        64        64        64        64        64        64        64        64        64        64 
dram[1]:        64        64        64        60        64        64        64        64        64        64        64        64        64        64        64        64 
dram[2]:        64        64        64        58        64        64        64        64        64        64        64        64        64        64        64        64 
dram[3]:        64        64        64        58        64        64        64        64        64        64        64        64        64        64        64        64 
dram[4]:        64        64        64        58        64        64        64        64        64        64        64        64        64        64        64        64 
maximum service time to same row:
dram[0]:     48709     48615     48180     47961     82067     82697     47064     47131     46718     46798     47558     47708     47394     46962     47628     48441 
dram[1]:     48676     48924     48638     48329     82196     80807     46720     46803     46645     46885     47660     47384     47384     47198     47385     48264 
dram[2]:     48408     48514     48274     47650     82354     81160     46638     46825     46636     47137     47746     47773     47386     47115     47793     48202 
dram[3]:     48448     48529     48915     48121     82305     80986     46420     46968     46927     46994     47615     47975     47592     47073     47915     47937 
dram[4]:     48521     48717     48669     48227     82166     80600     46978     46783     46656     47009     47613     47716     46770     47140     47618     48221 
average row accesses per activate:
dram[0]: 25.456333 27.769957 27.005009 21.907076 27.320618 27.345455 23.323923 27.517826 27.658703 24.363636 27.244333 27.290159 24.124907 27.428572 27.876289 25.095127 
dram[1]: 25.596519 27.557070 26.781458 21.962563 27.221720 27.099098 23.376024 27.517826 27.588085 24.641336 27.475021 27.428572 24.124907 27.638842 27.733334 25.056370 
dram[2]: 25.040247 27.627668 26.409796 22.025993 27.221720 27.246376 23.607784 27.658703 27.801029 24.585293 27.382278 27.568394 24.089087 27.451777 27.591837 24.807339 
dram[3]: 25.964687 27.627668 26.281073 22.250912 27.520586 27.395264 23.519762 27.801029 27.729683 24.549583 27.244333 27.359190 23.841293 27.359190 27.591837 24.600454 
dram[4]: 25.964687 27.698629 26.006432 22.121828 27.370337 27.545788 23.732130 27.517826 27.658703 24.438583 27.244333 27.290159 23.946863 27.405405 27.662405 24.750572 
average row locality = 2555909/98149 = 26.041111
number of total memory accesses made:
dram[0]:         0         0         0         0         0         0         0         0         0         0         0         0         0         0         0         0 
dram[1]:         0         0         0         0         0         0         0         0         0         0         0         0         0         0         0         0 
dram[2]:         0         0         0         0         0         0         0         0         0         0         0         0         0         0         0         0 
dram[3]:         0         0         0         0         0         0         0         0         0         0         0         0         0         0         0         0 
dram[4]:         0         0         0         0         0         0         0         0         0         0         0         0         0         0         0         0 
total accesses: 0
min_bank_accesses = 0!
min_chip_accesses = 0!
number of total read accesses:
dram[0]:     31971     31968     31968     30240     29664     29664     30978     32000     32000     32012     32032     32032     32032     32032     32032     32032 
dram[1]:     31970     31968     31968     30096     29664     29664     30978     32000     32000     32012     32032     32032     32032     32032     32032     32032 
dram[2]:     31968     31968     31968     30096     29664     29664     31124     32000     32000     32012     32032     32032     32032     32032     32032     32032 
dram[3]:     31968     31968     31968     30096     29664     29664     31124     32000     32000     32014     32032     32032     32032     32032     32032     32032 
dram[4]:     31968     31968     31968     30096     29664     29664     31124     32000     32000     32014     32032     32032     32032     32032     32032     32032 
total reads: 2523141
bank skew: 32032/29664 = 1.08
chip skew: 504658/504512 = 1.00
number of total write accesses:
dram[0]:       384       384       384       408       416       416       416       416       416       416       416       416       416       416       416       416 
dram[1]:       384       384       384       410       416       416       416       416       416       416       416       416       416       416       416       416 
dram[2]:       384       384       384       410       416       416       416       416       416       416       416       416       416       416       416       416 
dram[3]:       384       384       384       410       416       416       416       416       416       416       416       416       416       416       416       416 
dram[4]:       384       384       384       410       416       416       416       416       416       416       416       416       416       416       416       416 
total reads: 32768
bank skew: 416/384 = 1.08
chip skew: 6554/6552 = 1.00
average mf latency per bank:
dram[0]:       6378      6546      6602      6352      6526      6519      6251      6472      6542      6475      6534      6579      6470      6495      6596      6557
dram[1]:       6389      6563      6625      6376      6481      6525      6253      6482      6509      6426      6535      6597      6392      6453      6586      6531
dram[2]:       6417      6570      6607      6346      6492      6525      6334      6524      6558      6386      6520      6554      6431      6494      6585      6536
dram[3]:       6463      6665      6617      6347      6469      6559      6298      6504      6540      6407      6498      6579      6402      6474      6571      6549
dram[4]:       6475      6646      6643      6367      6549      6543      6299      6550      6570      6418      6555      6537      6450      6455      6565      6561
maximum mf latency per bank:
dram[0]:       1555      1562      1796      1614      1428      1594      1467      1587      1587      1593      1598      1517      1687      1664      1718      1717
dram[1]:       1763      1690      1721      1529      1516      1516      1553      1751      1594      1711      1702      1596      1642      1550      1549      1661
dram[2]:       1659      1680      1684      1461      1603      1536      1766      1487      1488      1536      1765      1625      1552      1696      1590      1571
dram[3]:       1551      1864      1722      1518      1628      1623      1710      1784      1907      1580      1654      1582      1703      1753      1652      1531
dram[4]:       1604      1599      1452      1520      1671      1694      1633      1634      1635      1628      1657      1723      1803      1681      1636      1784

Number of Memory Banks Accessed per Memory Operation per Warp (from 0):
0	0	0	0	0	0	0	0	0	0	0	0	0	0	0	0	0	0	0	0	0	0	0	0	0	0	0	0	0	0	0	0	0	0	0	0	0	0	0	0	0	0	0	0	0	0	0	0	0	0	0	0	0	0	0	0	0	0	0	0	0	0	0	0	0	0	0	0	0	0	0	0	0	0	0	0	0	0	0	0	
Average # of Memory Banks Accessed per Memory Operation per Warp=-nan

position of mrq chosen
0	0	0	0	0	0	0	0	0	0	0	0	0	0	0	0	

average position of mrq chosen = -nan
gpgpu_l2_write_miss = 0
gpgpu_l2_write_access = 0
gpgpu_l2_read_miss = 0
gpgpu_l2_read_access = 0
Cache L2_bank_000:
MSHR contents

DRAM[0]: 16 bks, busW=4 BL=8 CL=12, tRRD=2 tCCD=6, tRCD=12 tRAS=28 tRP=12 tRC=40
n_cmd=50601394 n_nop=49539738 n_act=19627 n_pre=19611 n_req=511209 n_rd=1009314 n_write=13104 bw_util=0.04041
n_activity=6727654 dram_eff=0.3039
bk0: 63942a 50453077i bk1: 63936a 50447713i bk2: 63936a 50447723i bk3: 60480a 50447936i bk4: 59328a 50447102i bk5: 59328a 50446674i bk6: 61956a 50444858i bk7: 64000a 50442163i bk8: 64000a 50437336i bk9: 64024a 50435973i bk10: 64064a 50438975i bk11: 64064a 50436992i bk12: 64064a 50428137i bk13: 64064a 50406322i bk14: 64064a 50384664i bk15: 64064a 50017654i 
dram_util_bins: 0 0 0 0 0 0 0 0 0 0
dram_eff_bins: 0 0 0 0 0 0 0 0 0 0
mrqq: max=16 avg=0.037551
Cache L2_bank_001:
MSHR contents

DRAM[1]: 16 bks, busW=4 BL=8 CL=12, tRRD=2 tCCD=6, tRCD=12 tRAS=28 tRP=12 tRC=40
n_cmd=50601394 n_nop=49540056 n_act=19611 n_pre=19595 n_req=511066 n_rd=1009024 n_write=13108 bw_util=0.0404
n_activity=6728435 dram_eff=0.3038
bk0: 63940a 50453443i bk1: 63936a 50447352i bk2: 63936a 50447961i bk3: 60192a 50446965i bk4: 59328a 50447165i bk5: 59328a 50447018i bk6: 61956a 50446076i bk7: 64000a 50444142i bk8: 64000a 50439072i bk9: 64024a 50434063i bk10: 64064a 50432305i bk11: 64064a 50436242i bk12: 64064a 50432327i bk13: 64064a 50406969i bk14: 64064a 50386944i bk15: 64064a 50018172i 
dram_util_bins: 0 0 0 0 0 0 0 0 0 0
dram_eff_bins: 0 0 0 0 0 0 0 0 0 0
mrqq: max=16 avg=0.0377382
Cache L2_bank_002:
MSHR contents
MSHR: tag=0x80bfee80, atomic=0 1 entries : 0x2b0822b8ae70 :  mf: uid=305566197, sid03:w29, part=2, addr=0x80bfee80, load , size=128, unknown  status = IN_PARTITION_DRAM (40481115), 

DRAM[2]: 16 bks, busW=4 BL=8 CL=12, tRRD=2 tCCD=6, tRCD=12 tRAS=28 tRP=12 tRC=40
n_cmd=50601394 n_nop=49539692 n_act=19650 n_pre=19634 n_req=511210 n_rd=1009310 n_write=13108 bw_util=0.04041
n_activity=6735192 dram_eff=0.3036
bk0: 63936a 50454461i bk1: 63936a 50447435i bk2: 63936a 50447161i bk3: 60192a 50446603i bk4: 59328a 50446161i bk5: 59328a 50446496i bk6: 62248a 50445047i bk7: 64000a 50443269i bk8: 64000a 50437068i bk9: 64024a 50432079i bk10: 64064a 50430512i bk11: 64064a 50436709i bk12: 64064a 50434648i bk13: 64064a 50406514i bk14: 64064a 50387190i bk15: 64062a 50018725i 
dram_util_bins: 0 0 0 0 0 0 0 0 0 0
dram_eff_bins: 0 0 0 0 0 0 0 0 0 0
mrqq: max=16 avg=0.0377173
Cache L2_bank_003:
MSHR contents

DRAM[3]: 16 bks, busW=4 BL=8 CL=12, tRRD=2 tCCD=6, tRCD=12 tRAS=28 tRP=12 tRC=40
n_cmd=50601394 n_nop=49539734 n_act=19626 n_pre=19610 n_req=511212 n_rd=1009316 n_write=13108 bw_util=0.04041
n_activity=6735375 dram_eff=0.3036
bk0: 63936a 50453270i bk1: 63936a 50447205i bk2: 63936a 50447476i bk3: 60192a 50446791i bk4: 59328a 50445712i bk5: 59328a 50446207i bk6: 62248a 50446328i bk7: 64000a 50443043i bk8: 64000a 50437680i bk9: 64028a 50431174i bk10: 64064a 50431394i bk11: 64064a 50436806i bk12: 64064a 50434112i bk13: 64064a 50406845i bk14: 64064a 50386419i bk15: 64064a 50018021i 
dram_util_bins: 0 0 0 0 0 0 0 0 0 0
dram_eff_bins: 0 0 0 0 0 0 0 0 0 0
mrqq: max=16 avg=0.0373401
Cache L2_bank_004:
MSHR contents

DRAM[4]: 16 bks, busW=4 BL=8 CL=12, tRRD=2 tCCD=6, tRCD=12 tRAS=28 tRP=12 tRC=40
n_cmd=50601394 n_nop=49539712 n_act=19637 n_pre=19621 n_req=511212 n_rd=1009316 n_write=13108 bw_util=0.04041
n_activity=6735159 dram_eff=0.3036
bk0: 63936a 50453586i bk1: 63936a 50447941i bk2: 63936a 50447342i bk3: 60192a 50447059i bk4: 59328a 50446769i bk5: 59328a 50446500i bk6: 62248a 50444838i bk7: 64000a 50440917i bk8: 64000a 50435926i bk9: 64028a 50430653i bk10: 64064a 50429911i bk11: 64064a 50438259i bk12: 64064a 50435858i bk13: 64064a 50407239i bk14: 64064a 50387111i bk15: 64064a 50016773i 
dram_util_bins: 0 0 0 0 0 0 0 0 0 0
dram_eff_bins: 0 0 0 0 0 0 0 0 0 0
mrqq: max=16 avg=0.0374729
Cache L2_bank_000:	Size = 131072 B (64 Set x 16-way x 128 byte line)
		Access = 6730996, Miss = 504657 (0.075), PendingHit = 1132776 (0.168)
Cache L2_bank_001:	Size = 131072 B (64 Set x 16-way x 128 byte line)
		Access = 6728938, Miss = 504512 (0.075), PendingHit = 1130851 (0.168)
Cache L2_bank_002:	Size = 131072 B (64 Set x 16-way x 128 byte line)
		Access = 6730956, Miss = 504656 (0.075), PendingHit = 1132304 (0.168)
Cache L2_bank_003:	Size = 131072 B (64 Set x 16-way x 128 byte line)
		Access = 6730958, Miss = 504658 (0.075), PendingHit = 1132688 (0.168)
Cache L2_bank_004:	Size = 131072 B (64 Set x 16-way x 128 byte line)
		Access = 6730958, Miss = 504658 (0.075), PendingHit = 1133721 (0.168)
L2 Cache Total Miss Rate = 0.075

icnt_total_pkts_mem_to_simt=168132930
icnt_total_pkts_simt_to_mem=33783878

LD_mem_lat_dist  0 0 0 0 0 0 0 0 0 0 0 0 0 0 0 0 0 0 0 0 0 0 0 0 0 0 0
ST_mem_lat_dist  0 0 0 0 0 0 0 0 0 0 0 0 0 0 0 0 0 0 0 0 0 0 0 0 0 0 0
Traffic 0 Stat
%=================================
% Average latency = 319.46
% Accepted packets = 0 at node 0 (avg = 0.0181426)
lat(1) = 319.46;
thru(1,:) = [ 0 0 0 0 0 0 0 0 0 0 0 0 0 0 0.0834612 0.0834359 0.0834608 0.0834608 0.0834608 0 0 0 0 ];
% latency change    = 1
% throughput change = 1
Traffic 1 Stat
%=================================
% Average latency = 12.9393
% Accepted packets = 0 at node 14 (avg = 0.0902906)
lat(2) = 12.9393;
thru(2,:) = [ 0.148045 0.148045 0.150073 0.150073 0.148045 0.148045 0.148045 0.148045 0.148045 0.148045 0.148045 0.148045 0.148045 0.148045 0 0 0 0 0 0 0 0 0 ];
% latency change    = 23.6891
% throughput change = 0.799064
----------------------------Interconnect-DETAILS---------------------------------=======Traffic[0]class0 ======
Traffic[0]class0Overall average latency = 319.46 (1 samples)
Traffic[0]class0Overall average accepted rate = 0.0181426 (1 samples)
Traffic[0]class0Overall min accepted rate = 0 (1 samples)
traffic_manager/latency_stat_0_freq = [ 0 4636841 416811 71369 24096 49865 19362 42533 18629 42299 18612 42710 19343 44059 21986 48339 26214 81322 27428 71029 27951 66481 27732 64038 28031 62602 28483 62158 29372 60875 28871 60394 29054 60550 29545 60629 29205 61175 29306 62306 29558 63436 30390 61424 30748 63349 31198 64915 32390 67826 34257 71038 36063 75015 37940 78089 39726 77042 38516 77935 37119 78436 35821 79226 34401 79955 33675 81892 33204 82742 33746 77589 34546 79278 35704 81990 37094 85410 39038 89177 40758 91789 42033 93927 41765 89873 37435 87352 34304 86343 31893 86571 30729 86019 29836 86259 29985 85246 29711 77236 30364 78535 31089 79359 31565 80653 31768 81774 32305 81301 31849 82101 30963 78226 27621 75909 25976 75658 24544 74099 24152 72938 23542 72166 23617 70316 23719 64830 23788 64818 23870 64584 23934 64890 23620 65335 23509 64672 23540 63777 22991 62715 21963 62091 21644 61298 21387 60488 21171 60345 20918 59528 21031 58559 21232 56975 21272 57068 21153 57293 21270 57067 21447 57542 21172 56815 21056 56753 21360 56717 21003 56363 21046 56533 20829 56744 21342 57125 21422 56770 21286 56564 21286 56363 21755 56141 21506 56441 21873 57157 21780 56928 21332 56633 21422 56617 21721 57156 21753 57567 21828 57896 21675 57733 21999 57867 21905 57782 21856 57737 21763 57979 21661 58171 21722 57848 21811 58308 21652 58543 21872 58332 22005 58499 21470 58742 21811 58606 21857 58836 21876 58774 21693 58642 21459 58828 21630 59127 21396 58656 21429 58923 21562 59107 21334 58973 21168 59321 21069 58829 20816 58728 20951 58832 20679 58343 20825 58824 20522 58291 20623 58141 20435 58569 20327 58205 20072 58428 20184 58448 19947 58384 20084 58176 19936 58066 19871 58038 19726 57564 19416 57816 19325 57789 19299 57773 19238 57599 19064 57344 18978 57546 18890 57295 19001 57232 18515 57153 18474 56904 18465 56497 18237 57053 18321 56900 18402 57291 18109 56677 17913 56303 17548 56303 17615 56233 17451 56079 17340 56021 17371 56223 17280 55933 17626 55940 17341 55557 17167 55250 16917 55535 17133 55292 17019 55521 16892 55433 16943 54990 16798 54989 16642 54778 16923 54829 16613 54701 16396 54661 16404 54089 16496 54863 16354 54382 16452 54374 16333 54259 16258 53946 16377 53967 16295 53954 16120 53963 16139 53712 16182 53798 16096 53543 16178 53598 16142 53807 16045 53479 16038 53388 16213 53509 16311 54060 15834 53136 16007 53181 15948 53381 16092 53435 15887 53303 16041 53467 15797 52832 15682 53200 15893 52853 15831 52826 15639 52724 16137 53076 15837 52773 15866 52429 15908 52713 16155 52619 15772 52259 15809 52293 16055 51986 15972 52261 15964 51747 15701 51615 15706 51698 15679 51653 15670 51443 15686 51625 15632 51671 15756 51180 15631 51174 15427 50853 15551 51186 15442 50831 15559 50634 15254 50868 15008 50742 15593 50775 15433 50315 15256 50291 15302 50407 15306 50189 15215 49730 15022 49628 15265 49784 15043 49739 14926 49252 14827 49242 14969 49182 14680 48857 14537 48408 14708 48381 14549 48230 14522 48298 14372 48181 14243 48104 14163 47337 13930 47132 14019 47099 13875 46833 13709 46758 13744 46344 13361 46344 13595 45615 13537 45826 13339 45653 13223 44894 13163 45039 13118 44718 12878 44405 12910 44828 12865 44077 12624 43695 12435 43506 12450 43286 12256 43376 12508 42784 12206 42650 11898 42351 11942 41923 11972 42035 11708 41766 11834 41209 11637 41426 11550 41037 11357 40449 11404 40940 11331 40646 11221 40127 11113 39927 10913 39660 10909 39382 10610 39294 10652 39101 10576 38569 10564 38241 10305 38460 10401 38228 10355 37728 10309 37229 10069 37405 10005 37012 9982 36782 9640 36768 9679 36282 9806 36169 9756 36049 9528 35771 9349 35667 9370 35136 9498 35322 9257 34953 9215 34861 9267 34314 9170 34246 8941 33887 9144 33836 9081 33760 8999 33486 8821 33219 8790 33122 8692 33145 8709 32914 8699 32536 8617 32390 8549 32271 8395 31817 8659 31882 8556 31753 8473 31643 8442 31338 8280 31035 8354 31389 8406 30712 8275 30694 8400 30487 8294 30209 8202 30375 7971 29999 8015 29620 8094 29575 8035 29609 7984 29421 8086 29119 7902 29139 8105 28665 7983 28532 7849 28553 7821 28310 7812 28161 7844 27964 7702 27691 7662 27799 7852 27428 7769 27291 7700 27410 7470 26686 7671 26928 7610 27047 7457 26942 7377 26799 7423 26481 7361 26396 7284 25799 7263 25807 7288 25431 7132 25810 7051 25369 7051 25124 7035 24939 7079 24513 7024 24720 6861 24519 6858 24269 6718 24069 6621 23845 6681 23850 6576 23834 6583 23339 6588 23269 6480 22939 6430 22956 6330 22743 6250 22714 6376 22457 6116 22046 6152 21994 6101 21769 6108 21986 5976 21665 5988 21401 5811 21178 5738 21306 5765 20892 5596 20833 5600 20118 5464 20323 5551 20488 5443 19928 5164 19820 5359 19726 5329 19709 5217 19365 5205 19265 5151 19399 4983 18927 4953 18839 4851 18715 4899 18536 4757 18368 4861 17848 4640 18146 4571 17833 4575 17622 4501 17746 4386 17294 4418 17236 4190 16867 4242 16661 4198 16575 4262 16643 4174 16473 4124 16647 4078 15971 4007 16071 3943 15848 3919 15727 3877 15789 3668 15148 3662 15204 3637 15225 3535 14968 3732 14872 3563 14620 3674 14590 3552 14345 3400 14120 3433 13993 3385 13718 3532 13650 3249 13461 3328 13733 3271 13445 3311 13546 3180 13204 3191 13009 3191 13063 3078 12845 3117 12780 3154 12660 3094 12447 3136 12576 3012 12621 2984 12178 3050 12227 3001 11961 2931 11893 3057 11935 2926 11678 2938 11687 2992 11645 2955 11411 2924 11315 2878 11432 2791 11100 2848 11304 2683 10943 2762 10832 2777 10594 2718 10729 2820 10757 2756 10610 2789 10279 2703 10482 2648 10263 2658 10105 2707 10197 2615 10029 2687 9778 2565 9571 2550 9696 2581 9656 2497 9569 2519 9396 2658 9379 2519 9220 2466 9243 2443 9287 2422 9049 2364 9156 2433 9123 2425 8922 2343 8876 2393 8854 2298 8609 2406 8592 2366 8628 2284 8498 2240 8534 2231 8430 2244 8374 2203 8172 2218 8085 2197 8234 2171 7829 2072 7956 2088 7946 1994 7866 2028 848015 ];
Traffic[0]class1Average hops = 1 (33652806 samples)
traffic_manager/hop_stats_freq = [ 0 33652806 0 0 0 0 0 0 0 0 0 0 0 0 0 0 0 0 0 0 ];
=======Traffic[1]class0 ======
Traffic[1]class0Overall average latency = 12.9393 (1 samples)
Traffic[1]class0Overall average accepted rate = 0.0902906 (1 samples)
Traffic[1]class0Overall min accepted rate = 0 (1 samples)
traffic_manager/latency_stat_0_freq = [ 0 27170 727 270 458 1761714 126933 97842 1373075 8894828 1421153 1420407 1505357 1513393 2565488 897126 7493849 433645 411956 604984 281867 1745356 91364 85487 127993 62206 433723 20362 18440 29730 14280 113141 5132 4334 7591 3589 31874 1582 1293 2309 1113 10225 536 425 860 369 3660 191 150 306 147 1409 81 73 113 57 538 19 22 40 19 221 15 8 16 12 85 4 4 3 2 40 0 1 0 0 14 0 0 0 0 0 0 0 0 0 0 0 0 0 0 0 0 0 0 0 0 0 0 0 0 0 0 0 0 0 0 0 0 0 0 0 0 0 0 0 0 0 0 0 0 0 0 0 0 0 0 0 0 0 0 0 0 0 0 0 0 0 0 0 0 0 0 0 0 0 0 0 0 0 0 0 0 0 0 0 0 0 0 0 0 0 0 0 0 0 0 0 0 0 0 0 0 0 0 0 0 0 0 0 0 0 0 0 0 0 0 0 0 0 0 0 0 0 0 0 0 0 0 0 0 0 0 0 0 0 0 0 0 0 0 0 0 0 0 0 0 0 0 0 0 0 0 0 0 0 0 0 0 0 0 0 0 0 0 0 0 0 0 0 0 0 0 0 0 0 0 0 0 0 0 0 0 0 0 0 0 0 0 0 0 0 0 0 0 0 0 0 0 0 0 0 0 0 0 0 0 0 0 0 0 0 0 0 0 0 0 0 0 0 0 0 0 0 0 0 0 0 0 0 0 0 0 0 0 0 0 0 0 0 0 0 0 0 0 0 0 0 0 0 0 0 0 0 0 0 0 0 0 0 0 0 0 0 0 0 0 0 0 0 0 0 0 0 0 0 0 0 0 0 0 0 0 0 0 0 0 0 0 0 0 0 0 0 0 0 0 0 0 0 0 0 0 0 0 0 0 0 0 0 0 0 0 0 0 0 0 0 0 0 0 0 0 0 0 0 0 0 0 0 0 0 0 0 0 0 0 0 0 0 0 0 0 0 0 0 0 0 0 0 0 0 0 0 0 0 0 0 0 0 0 0 0 0 0 0 0 0 0 0 0 0 0 0 0 0 0 0 0 0 0 0 0 0 0 0 0 0 0 0 0 0 0 0 0 0 0 0 0 0 0 0 0 0 0 0 0 0 0 0 0 0 0 0 0 0 0 0 0 0 0 0 0 0 0 0 0 0 0 0 0 0 0 0 0 0 0 0 0 0 0 0 0 0 0 0 0 0 0 0 0 0 0 0 0 0 0 0 0 0 0 0 0 0 0 0 0 0 0 0 0 0 0 0 0 0 0 0 0 0 0 0 0 0 0 0 0 0 0 0 0 0 0 0 0 0 0 0 0 0 0 0 0 0 0 0 0 0 0 0 0 0 0 0 0 0 0 0 0 0 0 0 0 0 0 0 0 0 0 0 0 0 0 0 0 0 0 0 0 0 0 0 0 0 0 0 0 0 0 0 0 0 0 0 0 0 0 0 0 0 0 0 0 0 0 0 0 0 0 0 0 0 0 0 0 0 0 0 0 0 0 0 0 0 0 0 0 0 0 0 0 0 0 0 0 0 0 0 0 0 0 0 0 0 0 0 0 0 0 0 0 0 0 0 0 0 0 0 0 0 0 0 0 0 0 0 0 0 0 0 0 0 0 0 0 0 0 0 0 0 0 0 0 0 0 0 0 0 0 0 0 0 0 0 0 0 0 0 0 0 0 0 0 0 0 0 0 0 0 0 0 0 0 0 0 0 0 0 0 0 0 0 0 0 0 0 0 0 0 0 0 0 0 0 0 0 0 0 0 0 0 0 0 0 0 0 0 0 0 0 0 0 0 0 0 0 0 0 0 0 0 0 0 0 0 0 0 0 0 0 0 0 0 0 0 0 0 0 0 0 0 0 0 0 0 0 0 0 0 0 0 0 0 0 0 0 0 0 0 0 0 0 0 0 0 0 0 0 0 0 0 0 0 0 0 0 0 0 0 0 0 0 0 0 0 0 0 0 0 0 0 0 0 0 0 0 0 0 0 0 0 0 0 0 0 0 0 0 0 0 0 0 0 0 0 0 0 0 0 0 0 0 0 0 0 0 0 0 0 0 0 0 0 0 0 0 0 0 0 0 0 0 0 0 0 0 0 0 0 0 0 0 0 0 0 0 0 0 0 0 0 0 0 0 0 0 0 0 0 0 0 0 0 0 0 0 0 0 0 0 0 0 0 0 0 0 0 0 0 0 0 0 0 0 0 0 0 0 0 0 0 0 0 0 0 0 0 0 0 0 0 0 0 0 0 0 0 0 0 0 0 0 0 0 0 0 0 0 0 0 ];
Traffic[1]class1Average hops = 1 (33652806 samples)
traffic_manager/hop_stats_freq = [ 0 33652806 0 0 0 0 0 0 0 0 0 0 0 0 0 0 0 0 0 0 ];
----------------------------END-of-Interconnect-DETAILS-------------------------

gpgpu_simulation_time = 0 days, 10 hrs, 6 min, 22 sec (36382 sec)
gpgpu_simulation_rate = 296455 (inst/sec)
gpgpu_simulation_rate = 1112 (cycle/sec)
GPGPU-Sim: synchronize waiting for inactive GPU simulation
GPGPU-Sim API: Stream Manager State
GPGPU-Sim: detected inactive GPU simulation thread
GPU Runtime: 36381.609499s
