

        *** GPGPU-Sim Simulator Version 3.2.1  [build 15629] ***


               1=functional simulation only, 0=detailed performance simulator)
GPGPU-Sim: Configuration options:

-network_mode                           1 # Interconnection network mode
-inter_config_file   config_fermi_islip.icnt # Interconnection network config file
-gpgpu_ptx_use_cuobjdump                    1 # Use cuobjdump to extract ptx and sass from binaries
-gpgpu_experimental_lib_support                    0 # Try to extract code from cuda libraries [Broken because of unknown cudaGetExportTable]
-gpgpu_ptx_convert_to_ptxplus                    0 # Convert SASS (native ISA) to ptxplus and run ptxplus
-gpgpu_ptx_force_max_capability                   20 # Force maximum compute capability
-gpgpu_ptx_inst_debug_to_file                    0 # Dump executed instructions' debug information to file
-gpgpu_ptx_inst_debug_file       inst_debug.txt # Executed instructions' debug output file
-gpgpu_ptx_inst_debug_thread_uid                    1 # Thread UID for executed instructions' debug output
-gpgpu_simd_model                       1 # 1 = post-dominator
-gpgpu_shader_core_pipeline              1536:32 # shader core pipeline config, i.e., {<nthread>:<warpsize>}
-gpgpu_tex_cache:l1  4:128:24,L:R:m:N,F:128:4,128:2 # per-shader L1 texture cache  (READ-ONLY) config  {<nsets>:<bsize>:<assoc>,<rep>:<wr>:<alloc>:<wr_alloc>,<mshr>:<N>:<merge>,<mq>:<rf>}
-gpgpu_const_cache:l1 64:64:2,L:R:f:N,A:2:32,4 # per-shader L1 constant memory cache  (READ-ONLY) config  {<nsets>:<bsize>:<assoc>,<rep>:<wr>:<alloc>:<wr_alloc>,<mshr>:<N>:<merge>,<mq>} 
-gpgpu_cache:il1     4:128:4,L:R:f:N,A:2:32,4 # shader L1 instruction cache config  {<nsets>:<bsize>:<assoc>,<rep>:<wr>:<alloc>:<wr_alloc>,<mshr>:<N>:<merge>,<mq>} 
-gpgpu_cache:dl1     32:128:4,L:L:m:N,A:32:8,8 # per-shader L1 data cache config  {<nsets>:<bsize>:<assoc>,<rep>:<wr>:<alloc>:<wr_alloc>,<mshr>:<N>:<merge>,<mq> | none}
-gpgpu_perfect_mem                      0 # enable perfect memory mode (no cache miss)
-n_regfile_gating_group                    4 # group of lanes that should be read/written together)
-gpgpu_clock_gated_reg_file                    0 # enable clock gated reg file for power calculations
-gpgpu_clock_gated_lanes                    0 # enable clock gated lanes for power calculations
-gpgpu_shader_registers                32768 # Number of registers per shader core. Limits number of concurrent CTAs. (default 8192)
-gpgpu_shader_cta                       8 # Maximum number of concurrent CTAs in shader (default 8)
-gpgpu_n_clusters                      14 # number of processing clusters
-gpgpu_n_cores_per_cluster                    1 # number of simd cores per cluster
-gpgpu_n_cluster_ejection_buffer_size                    8 # number of packets in ejection buffer
-gpgpu_n_ldst_response_buffer_size                    2 # number of response packets in ld/st unit ejection buffer
-gpgpu_shmem_size                   16384 # Size of shared memory per shader core (default 16kB)
-gpgpu_shmem_num_banks                   32 # Number of banks in the shared memory in each shader core (default 16)
-gpgpu_shmem_limited_broadcast                    0 # Limit shared memory to do one broadcast per cycle (default on)
-gpgpu_shmem_warp_parts                    1 # Number of portions a warp is divided into for shared memory bank conflict check 
-gpgpu_warpdistro_shader                   -1 # Specify which shader core to collect the warp size distribution from
-gpgpu_warp_issue_shader                    0 # Specify which shader core to collect the warp issue distribution from
-gpgpu_local_mem_map                    1 # Mapping from local memory space address to simulated GPU physical address space (default = enabled)
-gpgpu_num_reg_banks                   16 # Number of register banks (default = 8)
-gpgpu_reg_bank_use_warp_id                    0 # Use warp ID in mapping registers to banks (default = off)
-gpgpu_operand_collector_num_units_sp                    6 # number of collector units (default = 4)
-gpgpu_operand_collector_num_units_sfu                    8 # number of collector units (default = 4)
-gpgpu_operand_collector_num_units_mem                    2 # number of collector units (default = 2)
-gpgpu_operand_collector_num_units_gen                    0 # number of collector units (default = 0)
-gpgpu_operand_collector_num_in_ports_sp                    2 # number of collector unit in ports (default = 1)
-gpgpu_operand_collector_num_in_ports_sfu                    1 # number of collector unit in ports (default = 1)
-gpgpu_operand_collector_num_in_ports_mem                    1 # number of collector unit in ports (default = 1)
-gpgpu_operand_collector_num_in_ports_gen                    0 # number of collector unit in ports (default = 0)
-gpgpu_operand_collector_num_out_ports_sp                    2 # number of collector unit in ports (default = 1)
-gpgpu_operand_collector_num_out_ports_sfu                    1 # number of collector unit in ports (default = 1)
-gpgpu_operand_collector_num_out_ports_mem                    1 # number of collector unit in ports (default = 1)
-gpgpu_operand_collector_num_out_ports_gen                    0 # number of collector unit in ports (default = 0)
-gpgpu_coalesce_arch                   13 # Coalescing arch (default = 13, anything else is off for now)
-gpgpu_num_sched_per_core                    2 # Number of warp schedulers per core
-gpgpu_max_insn_issue_per_warp                    1 # Max number of instructions that can be issued per warp in one cycle by scheduler
-gpgpu_simt_core_sim_order                    1 # Select the simulation order of cores in a cluster (0=Fix, 1=Round-Robin)
-gpgpu_pipeline_widths        2,1,1,2,1,1,2 # Pipeline widths ID_OC_SP,ID_OC_SFU,ID_OC_MEM,OC_EX_SP,OC_EX_SFU,OC_EX_MEM,EX_WB
-gpgpu_num_sp_units                     2 # Number of SP units (default=1)
-gpgpu_num_sfu_units                    1 # Number of SF units (default=1)
-gpgpu_num_mem_units                    1 # Number if ldst units (default=1) WARNING: not hooked up to anything
-gpgpu_scheduler                      lrr # Scheduler configuration: < lrr | gto | two_level_active > If two_level_active:<num_active_warps>:<inner_prioritization>:<outer_prioritization>For complete list of prioritization values see shader.h enum scheduler_prioritization_typeDefault: gto
-gpgpu_dram_scheduler                    1 # 0 = fifo, 1 = FR-FCFS (defaul)
-gpgpu_dram_partition_queues              8:8:8:8 # i2$:$2d:d2$:$2i
-l2_ideal                               0 # Use a ideal L2 cache that always hit
-gpgpu_cache:dl2     64:128:16,L:B:m:W,A:32:4,4 # unified banked L2 data cache config  {<nsets>:<bsize>:<assoc>,<rep>:<wr>:<alloc>:<wr_alloc>,<mshr>:<N>:<merge>,<mq>}
-gpgpu_cache:dl2_texture_only                    0 # L2 cache used for texture only
-gpgpu_n_mem                            5 # number of memory modules (e.g. memory controllers) in gpu
-gpgpu_n_mem_per_ctrlr                    2 # number of memory chips per memory controller
-gpgpu_memlatency_stat                   14 # track and display latency statistics 0x2 enables MC, 0x4 enables queue logs
-gpgpu_frfcfs_dram_sched_queue_size                   16 # 0 = unlimited (default); # entries per chip
-gpgpu_dram_return_queue_size                    0 # 0 = unlimited (default); # entries per chip
-gpgpu_dram_buswidth                    4 # default = 4 bytes (8 bytes per cycle at DDR)
-gpgpu_dram_burst_length                    8 # Burst length of each DRAM request (default = 4 data bus cycle)
-dram_data_command_freq_ratio                    4 # Frequency ratio between DRAM data bus and command bus (default = 2 times, i.e. DDR)
-gpgpu_dram_timing_opt nbk=16:CCD=2:RRD=6:RCD=12:RAS=28:RP=12:RC=40: CL=12:WL=4:CDLR=5:WR=12:nbkgrp=4:CCDL=3:RTPL=2 # DRAM timing parameters = {nbk:tCCD:tRRD:tRCD:tRAS:tRP:tRC:CL:WL:tCDLR:tWR:nbkgrp:tCCDL:tRTPL}
-rop_latency                           80 # ROP queue latency (default 85)
-dram_latency                          67 # DRAM latency (default 30)
-gpgpu_mem_addr_mapping dramid@8;00000000.00000000.00000000.00000000.0000RRRR.RRRRRRRR.BBBBCCCC.CCSSSSSS # mapping memory address to dram model {dramid@<start bit>;<memory address map>}
-gpgpu_mem_addr_test                    0 # run sweep test to check address mapping for aliased address
-gpgpu_mem_address_mask                    1 # 0 = old addressing mask, 1 = new addressing mask, 2 = new add. mask + flipped bank sel and chip sel bits
-gpuwattch_xml_file         gpuwattch.xml # GPUWattch XML file
-power_simulation_enabled                    1 # Turn on power simulator (1=On, 0=Off)
-power_per_cycle_dump                    0 # Dump detailed power output each cycle
-power_trace_enabled                    1 # produce a file for the power trace (1=On, 0=Off)
-power_trace_zlevel                     6 # Compression level of the power trace output log (0=no comp, 9=highest)
-steady_power_levels_enabled                    0 # produce a file for the steady power levels (1=On, 0=Off)
-steady_state_definition                  8:4 # allowed deviation:number of samples
-gpgpu_max_cycle                        0 # terminates gpu simulation early (0 = no limit)
-gpgpu_max_insn                         0 # terminates gpu simulation early (0 = no limit)
-gpgpu_max_cta                          0 # terminates gpu simulation early (0 = no limit)
-gpgpu_runtime_stat                   500 # display runtime statistics such as dram utilization {<freq>:<flag>}
-gpgpu_flush_l1_cache                    0 # Flush L1 cache at the end of each kernel call
-gpgpu_flush_l2_cache                    0 # Flush L2 cache at the end of each kernel call
-gpgpu_deadlock_detect                    1 # Stop the simulation at deadlock (1=on (default), 0=off)
-gpgpu_ptx_instruction_classification                    0 # if enabled will classify ptx instruction types per kernel (Max 255 kernels now)
-gpgpu_ptx_sim_mode                     0 # Select between Performance (default) or Functional simulation (1)
-gpgpu_clock_domains 400.0:800.0:400.0:900.0 # Clock Domain Frequencies in MhZ {<Core Clock>:<ICNT Clock>:<L2 Clock>:<DRAM Clock>}
-gpgpu_max_concurrent_kernel                    8 # maximum kernels that can run concurrently on GPU
-gpgpu_cflog_interval                    0 # Interval between each snapshot in control flow logger
-visualizer_enabled                     0 # Turn on visualizer output (1=On, 0=Off)
-visualizer_outputfile                 NULL # Specifies the output log file for visualizer
-visualizer_zlevel                      6 # Compression level of the visualizer output log (0=no comp, 9=highest)
-trace_enabled                          0 # Turn on traces
-trace_components                    none # comma seperated list of traces to enable. Complete list found in trace_streams.tup. Default none
-trace_sampling_core                    0 # The core which is printed using CORE_DPRINTF. Default 0
-enable_ptx_file_line_stats                    1 # Turn on PTX source line statistic profiling. (1 = On)
-ptx_line_stats_filename gpgpu_inst_stats.txt # Output file for PTX source line statistics.
-save_embedded_ptx                      0 # saves ptx files embedded in binary as <n>.ptx
-keep                                   0 # keep intermediate files created by GPGPU-Sim when interfacing with external programs
-gpgpu_ptx_save_converted_ptxplus                    0 # Saved converted ptxplus to a file
-ptx_opcode_latency_int         4,13,4,5,145 # Opcode latencies for integers <ADD,MAX,MUL,MAD,DIV>Default 1,1,19,25,145
-ptx_opcode_latency_fp          4,13,4,5,39 # Opcode latencies for single precision floating points <ADD,MAX,MUL,MAD,DIV>Default 1,1,1,1,30
-ptx_opcode_latency_dp         8,19,8,8,330 # Opcode latencies for double precision floating points <ADD,MAX,MUL,MAD,DIV>Default 8,8,8,8,335
-ptx_opcode_initiation_int            1,2,2,1,8 # Opcode initiation intervals for integers <ADD,MAX,MUL,MAD,DIV>Default 1,1,4,4,32
-ptx_opcode_initiation_fp            1,2,1,1,4 # Opcode initiation intervals for single precision floating points <ADD,MAX,MUL,MAD,DIV>Default 696f4a053ff76b276c71c5b9fd0e281d  /tmp/tmp.7BblzjaynZ/histo__SIZE1_1
1,1,1,1,5
-ptx_opcode_initiation_dp         8,16,8,8,130 # Opcode initiation intervals for double precision floating points <ADD,MAX,MUL,MAD,DIV>Default 8,8,8,8,130
DRAM Timing Options:
nbk                                    16 # number of banks
CCD                                     2 # column to column delay
RRD                                     6 # minimal delay between activation of rows in different banks
RCD                                    12 # row to column delay
RAS                                    28 # time needed to activate row
RP                                     12 # time needed to precharge (deactivate) row
RC                                     40 # row cycle time
CDLR                                    5 # switching from write to read (changes tWTR)
WR                                     12 # last data-in to row precharge
CL                                     12 # CAS latency
WL                                      4 # Write latency
nbkgrp                                  4 # number of bank groups
CCDL                                    3 # column to column delay between accesses to different bank groups
RTPL                                    2 # read to precharge delay between accesses to different bank groups
addr_dec_mask[CHIP]  = 0000000000000000 	high:64 low:0
addr_dec_mask[BK]    = 000000000000f000 	high:16 low:12
addr_dec_mask[ROW]   = 000000000fff0000 	high:28 low:16
addr_dec_mask[COL]   = 0000000000000fff 	high:12 low:0
addr_dec_mask[BURST] = 000000000000003f 	high:6 low:0
*** Initializing Memory Statistics ***
self exe links to: /tmp/tmp.7BblzjaynZ/histo__SIZE1_1
Running md5sum using "md5sum /tmp/tmp.7BblzjaynZ/histo__SIZE1_1 "
Running cuobjdump using "$CUDA_INSTALL_PATH/bin/cuobjdump -ptx -elf -sass /tmp/tmp.7BblzjaynZ/histo__SIZE1_1 > _cuobjdump_complete_output_taF1tN"
Parsing file _cuobjdump_complete_output_taF1tN
######### cuobjdump parser ########
## Adding new section PTX
Adding ptx filename: _cuobjdump_1.ptx
Adding arch: sm_13
Adding identifier: benchmarks/histo/histo.cu
## Adding new section ELF
Adding arch: sm_13
Adding identifier: benchmarks/histo/histo.cu
Done parsing!!!
Adding _cuobjdump_1.ptx with cubin handle 1
Running: cat _ptx_45Mbog | sed 's/.version 1.5/.version 1.4/' | sed 's/, texmode_independent//' | sed 's/\(\.extern \.const\[1\] .b8 \w\+\)\[\]/\1\[1\]/' | sed 's/const\[.\]/const\[0\]/g' > _ptx2_RgPniJ

kernel '_Z20histo_prescan_kernelPjiS_' transfer to GPU hardware scheduler
kernel_name = _Z20histo_prescan_kernelPjiS_ 
kernel_launch_uid = 1 
gpu_sim_cycle = 13480
gpu_sim_insn = 5500864
gpu_ipc =     408.0760
gpu_tot_sim_cycle = 13480
gpu_tot_sim_insn = 5500864
gpu_tot_ipc =     408.0760
gpu_tot_issued_cta = 0
gpu_stall_dramfull = 8332
gpu_stall_icnt2sh    = 26880
gpu_total_sim_rate=550086
Cache L1D_000:	Size = 16384 B (32 Set x 4-way x 128 byte line)
		Access = 1526, Miss = 813 (0.533), PendingHit = 356 (0.233)
Cache L1D_001:	Size = 16384 B (32 Set x 4-way x 128 byte line)
		Access = 894, Miss = 440 (0.492), PendingHit = 226 (0.253)
Cache L1D_002:	Size = 16384 B (32 Set x 4-way x 128 byte line)
		Access = 1526, Miss = 760 (0.498), PendingHit = 498 (0.326)
Cache L1D_003:	Size = 16384 B (32 Set x 4-way x 128 byte line)
		Access = 1016, Miss = 429 (0.422), PendingHit = 277 (0.273)
Cache L1D_004:	Size = 16384 B (32 Set x 4-way x 128 byte line)
		Access = 1528, Miss = 773 (0.506), PendingHit = 370 (0.242)
Cache L1D_005:	Size = 16384 B (32 Set x 4-way x 128 byte line)
		Access = 1400, Miss = 756 (0.54), PendingHit = 197 (0.141)
Cache L1D_006:	Size = 16384 B (32 Set x 4-way x 128 byte line)
		Access = 1528, Miss = 764 (0.5), PendingHit = 448 (0.293)
Cache L1D_007:	Size = 16384 B (32 Set x 4-way x 128 byte line)
		Access = 762, Miss = 371 (0.487), PendingHit = 204 (0.268)
Cache L1D_008:	Size = 16384 B (32 Set x 4-way x 128 byte line)
		Access = 1270, Miss = 508 (0.4), PendingHit = 331 (0.261)
Cache L1D_009:	Size = 16384 B (32 Set x 4-way x 128 byte line)
		Access = 762, Miss = 379 (0.497), PendingHit = 166 (0.218)
Cache L1D_010:	Size = 16384 B (32 Set x 4-way x 128 byte line)
		Access = 766, Miss = 379 (0.495), PendingHit = 177 (0.231)
Cache L1D_011:	Size = 16384 B (32 Set x 4-way x 128 byte line)
		Access = 764, Miss = 390 (0.51), PendingHit = 120 (0.157)
Cache L1D_012:	Size = 16384 B (32 Set x 4-way x 128 byte line)
		Access = 1524, Miss = 762 (0.5), PendingHit = 257 (0.169)
Cache L1D_013:	Size = 16384 B (32 Set x 4-way x 128 byte line)
		Access = 762, Miss = 381 (0.5), PendingHit = 179 (0.235)
total_dl1_misses=7905
total_dl1_accesses=16028
total_dl1_miss_rate= 0.493199
Shader 0 dynamic_warp_id issue ditsribution:
dynamic_warp_id:
0, 1, 2, 3, 4, 5, 6, 7, 8, 9, 10, 11, 12, 13, 14, 15, 16, 17, 18, 19, 20, 21, 22, 23, 24, 25, 26, 27, 28, 29, 30, 31, 32, 33, 34, 35, 36, 37, 38, 39, 40, 41, 42, 43, 44, 45, 46, 47, 48, 49, 50, 51, 52, 53, 54, 55, 56, 57, 58, 59, 60, 61, 62, 63, 64, 65, 66, 67, 68, 69, 70, 71, 72, 73, 74, 75, 76, 77, 78, 79, 80, 81, 82, 83, 84, 85, 86, 87, 88, 89, 90, 91, 92, 93, 94, 95, 
distro:
269, 201, 188, 188, 175, 175, 175, 175, 162, 162, 162, 162, 162, 162, 162, 162, 269, 201, 188, 188, 175, 175, 175, 175, 162, 162, 162, 162, 162, 162, 162, 162, 269, 201, 188, 188, 175, 175, 175, 175, 162, 162, 162, 162, 162, 162, 162, 162, 269, 201, 188, 188, 175, 175, 175, 175, 162, 162, 162, 162, 162, 162, 162, 162, 269, 201, 188, 188, 175, 175, 175, 175, 162, 162, 162, 162, 162, 162, 162, 162, 269, 201, 188, 188, 175, 175, 175, 175, 162, 162, 162, 162, 162, 162, 162, 162, 
gpgpu_n_tot_thrd_icount = 5820416
gpgpu_n_tot_w_icount = 181888
gpgpu_n_icache_hits = 104640
gpgpu_n_icache_misses = 3449
gpgpu_n_l1dcache_read_hits = 4317
gpgpu_n_l1dcache_read_misses = 11711
gpgpu_n_l1dcache_write_accesses = 0
gpgpu_n_l1dcache_wirte_misses = 0
gpgpu_n_tcache_hits = 0
gpgpu_n_tcache_misses = 0
gpgpu_n_ccache_hits = 2688
gpgpu_n_ccache_misses = 448
gpgpu_n_stall_shd_mem = 35202
gpgpu_n_mem_read_local = 0
gpgpu_n_mem_write_local = 0
gpgpu_n_mem_read_global = 8033
gpgpu_n_mem_write_global = 0
gpgpu_n_mem_texture = 0
gpgpu_n_mem_const = 14
gpgpu_n_load_insn  = 518144
gpgpu_n_store_insn = 0
gpgpu_n_shmem_insn = 782208
gpgpu_n_tex_insn = 0
gpgpu_n_const_mem_insn = 0
gpgpu_n_param_mem_insn = 196736
gpgpu_n_shmem_bkconflict = 0
gpgpu_n_cache_bkconflict = 0
gpgpu_n_intrawarp_mshr_merge = 0
gpgpu_n_cmem_portconflict = 1813
gpgpu_stall_shd_mem[c_mem][bk_conf] = 1813
gpgpu_stall_shd_mem[c_mem][mshr_rc] = 0
gpgpu_stall_shd_mem[c_mem][icnt_rc] = 0
gpgpu_stall_shd_mem[t_mem][mshr_rc] = 0
gpgpu_stall_shd_mem[t_mem][icnt_rc] = 0
gpgpu_stall_shd_mem[s_mem][bk_conf] = 0
gpgpu_stall_shd_mem[gl_mem][bk_conf] = 0
gpgpu_stall_shd_mem[gl_mem][coal_stall] = 33389
gpgpu_stall_shd_mem[g_mem_ld][mshr_rc] = 0
gpgpu_stall_shd_mem[g_mem_ld][icnt_rc] = 0
gpgpu_stall_shd_mem[g_mem_ld][wb_icnt_rc] = 0
gpgpu_stall_shd_mem[g_mem_ld][wb_rsrv_fail] = 0
gpgpu_stall_shd_mem[g_mem_st][mshr_rc] = 0
gpgpu_stall_shd_mem[g_mem_st][icnt_rc] = 0
gpgpu_stall_shd_mem[g_mem_st][wb_icnt_rc] = 0
gpgpu_stall_shd_mem[g_mem_st][wb_rsrv_fail] = 0
gpgpu_stall_shd_mem[l_mem_ld][mshr_rc] = 0
gpgpu_stall_shd_mem[l_mem_ld][icnt_rc] = 0
gpgpu_stall_shd_mem[l_mem_ld][wb_icnt_rc] = 0
gpgpu_stall_shd_mem[l_mem_ld][wb_rsrv_fail] = 0
gpgpu_stall_shd_mem[l_mem_st][mshr_rc] = 0
gpgpu_stall_shd_mem[l_mem_st][icnt_rc] = 0
gpgpu_stall_shd_mem[l_mem_ld][wb_icnt_rc] = 0
gpgpu_stall_shd_mem[l_mem_ld][wb_rsrv_fail] = 0
gpu_reg_bank_conflict_stalls = 0
Warp Occupancy Distribution:
Stall:54900	W0_Idle:32943	W0_Scoreboard:33525	W1:1472	W2:512	W3:0	W4:512	W5:0	W6:0	W7:1088	W8:512	W9:0	W10:0	W11:0	W12:0	W13:0	W14:0	W15:0	W16:512	W17:0	W18:0	W19:0	W20:0	W21:0	W22:0	W23:0	W24:0	W25:0	W26:0	W27:0	W28:0	W29:0	W30:0	W31:0	W32:177280
maxmrqlatency = 81 
maxdqlatency = 0 
maxmflatency = 554 
averagemflatency = 216 
max_icnt2mem_latency = 436 
max_icnt2sh_latency = 28 
mrq_lat_table:2190 	125 	263 	787 	531 	222 	3 	0 	0 	0 	0 	0 	0 	0 	0 	0 	0 	0 	0 	0 	0 	0 	0 	0 	0 	0 	0 	0 	0 	0 	0 	0 	
dq_lat_table:0 	0 	0 	0 	0 	0 	0 	0 	0 	0 	0 	0 	0 	0 	0 	0 	0 	0 	0 	0 	0 	0 	0 	0 	0 	0 	0 	0 	0 	0 	0 	0 	
mf_lat_table:0 	0 	0 	0 	0 	0 	2105 	3137 	2789 	16 	0 	0 	0 	0 	0 	0 	0 	0 	0 	0 	0 	0 	0 	0 	0 	0 	0 	0 	0 	0 	0 	0 	
icnt2mem_lat_table:202 	4102 	438 	377 	261 	529 	1186 	986 	120 	0 	0 	0 	0 	0 	0 	0 	0 	0 	0 	0 	0 	0 	0 	0 	
icnt2sh_lat_table:110 	832 	1564 	5159 	382 	0 	0 	0 	0 	0 	0 	0 	0 	0 	0 	0 	0 	0 	0 	0 	0 	0 	0 	0 	
mf_lat_pw_table:0 	0 	0 	0 	0 	0 	9 	8 	4 	0 	0 	0 	0 	0 	0 	0 	0 	0 	0 	0 	0 	0 	0 	0 	0 	0 	0 	0 	0 	0 	0 	0 	
maximum concurrent accesses to same row:
dram[0]:         8         8         6         7         3         4         3         4         8         4         4         7         4         6         7         4 
dram[1]:         8         8         4         5         4         4         3         4         8         4         4        10         4         6         8         4 
dram[2]:         8         9         4         4         4         4         4         4         8         5         4        10         4         5         4         6 
dram[3]:         6        10         4         4         4         4         4         4         8         3         4        10         4         6         4         4 
dram[4]:         6        10         4         7         4         4         3         4         8         3         4         9         4         6         4         3 
maximum service time to same row:
dram[0]:      3174      6826      1205      1403      6790      5994      1245      8114      5548      1251      8198      5135      1235      5732      5899      1252 
dram[1]:      3828      6844      1204      1378      6809      6215      1248      8159      5490      1282      8226      5157      1161      5479      5850      1368 
dram[2]:      5056      6851      1212      1462      6802      6059      1248      8191      5628      1210      8228      5137      1296      5450      5211      1452 
dram[3]:      4962      6863      1222      4392      6847      5983      1303      8172      5558      1234      8241      5050      1338      5578      5433      1334 
dram[4]:      3971      6799      1224      1391      6789      6110      1248      8173      5787      1249      8192      5150      1367      5678      5453      1211 
average row accesses per activate:
dram[0]:  3.375000  2.064516  1.914286  2.600000  1.862069  1.939394  1.772727  2.000000  2.344828  1.657143  2.000000  2.407408  1.743590  4.000000  2.129032  1.777778 
dram[1]:  3.857143  2.233333  1.970588  2.250000  2.125000  2.093750  1.944444  1.952381  2.321429  1.794118  2.500000  2.640000  1.911765  3.000000  2.680000  1.911765 
dram[2]:  3.714286  2.615385  1.939394  2.250000  2.272727  1.837838  2.266667  1.869565  2.133333  1.906250  2.142857  2.428571  1.937500  2.600000  2.133333  2.060606 
dram[3]:  2.166667  2.576923  1.666667  2.666667  2.318182  2.161290  2.125000  2.142857  1.857143  1.463415  3.000000  2.266667  1.823529  2.800000  1.911765  1.333333 
dram[4]:  2.888889  2.666667  1.914286  2.750000  2.291667  2.133333  1.850000  2.000000  2.125000  1.461538  3.000000  2.321429  1.756757  3.250000  2.125000  1.666667 
average row locality = 4121/1986 = 2.075025
number of total memory accesses made:
dram[0]:         0         0         0         0         0         0         0         0         0         0         0         0         0         0         0         0 
dram[1]:         0         0         0         0         0         0         0         0         0         0         0         0         0         0         0         0 
dram[2]:         0         0         0         0         0         0         0         0         0         0         0         0         0         0         0         0 
dram[3]:         0         0         0         0         0         0         0         0         0         0         0         0         0         0         0         0 
dram[4]:         0         0         0         0         0         0         0         0         0         0         0         0         0         0         0         0 
total accesses: 0
min_bank_accesses = 0!
min_chip_accesses = 0!
number of total read accesses:
dram[0]:        27        64        67        26        54        64        39        38        68        58        32        65        68        24        66        64 
dram[1]:        27        67        67        27        51        67        35        41        65        61        30        66        65        24        67        65 
dram[2]:        26        68        64        27        50        68        34        43        64        61        30        68        62        26        64        68 
dram[3]:        26        67        65        24        51        67        34        45        65        60        30        68        62        28        65        68 
dram[4]:        26        64        67        22        55        64        37        42        68        57        33        65        65        26        68        65 
total reads: 4121
bank skew: 68/22 = 3.09
chip skew: 825/823 = 1.00
number of total write accesses:
dram[0]:         0         0         0         0         0         0         0         0         0         0         0         0         0         0         0         0 
dram[1]:         0         0         0         0         0         0         0         0         0         0         0         0         0         0         0         0 
dram[2]:         0         0         0         0         0         0         0         0         0         0         0         0         0         0         0         0 
dram[3]:         0         0         0         0         0         0         0         0         0         0         0         0         0         0         0         0 
dram[4]:         0         0         0         0         0         0         0         0         0         0         0         0         0         0         0         0 
total reads: 0
min_bank_accesses = 0!
min_chip_accesses = 0!
average mf latency per bank:
dram[0]:        428       304       476       512       265       439       501       279       438       500       235       396       506       289       334       513
dram[1]:        339       303       470       515       263       454       500       284       422       500       235       431       505       285       345       516
dram[2]:        352       311       465       447       278       429       465       292       402       456       237       386       471       269       326       459
dram[3]:        423       323       526      1068       298       516       584       292       488       542       262       484       570       295       370       564
dram[4]:        405       315       514       532       278       494       538       292       459       534       241       450       538       262       360       532
maximum mf latency per bank:
dram[0]:        512       366       434       436       269       391       496       220       519       421       220       439       519       351       528       519
dram[1]:        475       372       483       445       289       412       515       231       384       451       196       416       455       298       525       493
dram[2]:        434       358       425       422       395       407       435       238       436       417       202       457       407       302       453       414
dram[3]:        505       377       476       549       312       502       475       265       458       521       271       554       460       407       460       514
dram[4]:        460       353       459       450       329       427       447       251       486       424       226       497       456       362       529       448

Number of Memory Banks Accessed per Memory Operation per Warp (from 0):
0	0	0	0	0	0	0	0	0	0	0	0	0	0	0	0	0	0	0	0	0	0	0	0	0	0	0	0	0	0	0	0	0	0	0	0	0	0	0	0	0	0	0	0	0	0	0	0	0	0	0	0	0	0	0	0	0	0	0	0	0	0	0	0	0	0	0	0	0	0	0	0	0	0	0	0	0	0	0	0	
Average # of Memory Banks Accessed per Memory Operation per Warp=-nan

position of mrq chosen
0	0	0	0	0	0	0	0	0	0	0	0	0	0	0	0	

average position of mrq chosen = -nan
gpgpu_l2_write_miss = 0
gpgpu_l2_write_access = 0
gpgpu_l2_read_miss = 0
gpgpu_l2_read_access = 0
Cache L2_bank_000:
MSHR contents

DRAM[0]: 16 bks, busW=4 BL=8 CL=12, tRRD=2 tCCD=6, tRCD=12 tRAS=28 tRP=12 tRC=40
n_cmd=30328 n_nop=27882 n_act=407 n_pre=391 n_req=824 n_rd=1648 n_write=0 bw_util=0.1087
n_activity=6875 dram_eff=0.4794
bk0: 54a 29875i bk1: 128a 29562i bk2: 134a 29017i bk3: 52a 29644i bk4: 108a 29656i bk5: 128a 29173i bk6: 78a 29540i bk7: 76a 29805i bk8: 136a 29305i bk9: 116a 29141i bk10: 64a 29857i bk11: 130a 29298i bk12: 136a 28962i bk13: 48a 29547i bk14: 132a 28578i bk15: 128a 26018i 
dram_util_bins: 0 0 0 0 0 0 0 0 0 0
dram_eff_bins: 0 0 0 0 0 0 0 0 0 0
mrqq: max=14 avg=0.426273
Cache L2_bank_001:
MSHR contents

DRAM[1]: 16 bks, busW=4 BL=8 CL=12, tRRD=2 tCCD=6, tRCD=12 tRAS=28 tRP=12 tRC=40
n_cmd=30328 n_nop=27936 n_act=379 n_pre=363 n_req=825 n_rd=1650 n_write=0 bw_util=0.1088
n_activity=6824 dram_eff=0.4836
bk0: 54a 29813i bk1: 134a 29614i bk2: 134a 29230i bk3: 54a 29720i bk4: 102a 29660i bk5: 134a 29272i bk6: 70a 29551i bk7: 82a 29722i bk8: 130a 29141i bk9: 122a 29439i bk10: 60a 29812i bk11: 132a 29287i bk12: 130a 29033i bk13: 48a 29491i bk14: 134a 28537i bk15: 130a 26293i 
dram_util_bins: 0 0 0 0 0 0 0 0 0 0
dram_eff_bins: 0 0 0 0 0 0 0 0 0 0
mrqq: max=13 avg=0.493504
Cache L2_bank_002:
MSHR contents

DRAM[2]: 16 bks, busW=4 BL=8 CL=12, tRRD=2 tCCD=6, tRCD=12 tRAS=28 tRP=12 tRC=40
n_cmd=30328 n_nop=27928 n_act=385 n_pre=369 n_req=823 n_rd=1646 n_write=0 bw_util=0.1085
n_activity=6905 dram_eff=0.4768
bk0: 52a 29835i bk1: 136a 29553i bk2: 128a 29319i bk3: 54a 29615i bk4: 100a 29732i bk5: 136a 29362i bk6: 68a 29553i bk7: 86a 29793i bk8: 128a 29317i bk9: 122a 29374i bk10: 60a 29731i bk11: 136a 29302i bk12: 124a 29142i bk13: 52a 29512i bk14: 128a 28510i bk15: 136a 26152i 
dram_util_bins: 0 0 0 0 0 0 0 0 0 0
dram_eff_bins: 0 0 0 0 0 0 0 0 0 0
mrqq: max=16 avg=0.447738
Cache L2_bank_003:
MSHR contents

DRAM[3]: 16 bks, busW=4 BL=8 CL=12, tRRD=2 tCCD=6, tRCD=12 tRAS=28 tRP=12 tRC=40
n_cmd=30328 n_nop=27852 n_act=421 n_pre=405 n_req=825 n_rd=1650 n_write=0 bw_util=0.1088
n_activity=6749 dram_eff=0.489
bk0: 52a 29751i bk1: 134a 29551i bk2: 130a 29003i bk3: 48a 29658i bk4: 102a 29771i bk5: 134a 29052i bk6: 68a 29411i bk7: 90a 29839i bk8: 130a 29164i bk9: 120a 29208i bk10: 60a 29782i bk11: 136a 29151i bk12: 124a 28737i bk13: 56a 29572i bk14: 130a 28615i bk15: 136a 25927i 
dram_util_bins: 0 0 0 0 0 0 0 0 0 0
dram_eff_bins: 0 0 0 0 0 0 0 0 0 0
mrqq: max=14 avg=0.483909
Cache L2_bank_004:
MSHR contents

DRAM[4]: 16 bks, busW=4 BL=8 CL=12, tRRD=2 tCCD=6, tRCD=12 tRAS=28 tRP=12 tRC=40
n_cmd=30328 n_nop=27902 n_act=397 n_pre=381 n_req=824 n_rd=1648 n_write=0 bw_util=0.1087
n_activity=6844 dram_eff=0.4816
bk0: 52a 29791i bk1: 128a 29514i bk2: 134a 29118i bk3: 44a 29639i bk4: 110a 29673i bk5: 128a 29234i bk6: 74a 29482i bk7: 84a 29857i bk8: 136a 29253i bk9: 114a 29385i bk10: 66a 29794i bk11: 130a 29353i bk12: 130a 28946i bk13: 52a 29553i bk14: 136a 28555i bk15: 130a 26063i 
dram_util_bins: 0 0 0 0 0 0 0 0 0 0
dram_eff_bins: 0 0 0 0 0 0 0 0 0 0
mrqq: max=14 avg=0.494461
Cache L2_bank_000:	Size = 131072 B (64 Set x 16-way x 128 byte line)
		Access = 1621, Miss = 824 (0.508), PendingHit = 7 (0.00432)
Cache L2_bank_001:	Size = 131072 B (64 Set x 16-way x 128 byte line)
		Access = 1614, Miss = 825 (0.511), PendingHit = 9 (0.00558)
Cache L2_bank_002:	Size = 131072 B (64 Set x 16-way x 128 byte line)
		Access = 1613, Miss = 823 (0.51), PendingHit = 6 (0.00372)
Cache L2_bank_003:	Size = 131072 B (64 Set x 16-way x 128 byte line)
		Access = 1742, Miss = 825 (0.474), PendingHit = 9 (0.00517)
Cache L2_bank_004:	Size = 131072 B (64 Set x 16-way x 128 byte line)
		Access = 1611, Miss = 824 (0.511), PendingHit = 2 (0.00124)
L2 Cache Total Miss Rate = 0.502

icnt_total_pkts_mem_to_simt=40593
icnt_total_pkts_simt_to_mem=8201

LD_mem_lat_dist  0 0 0 0 0 0 0 0 0 0 0 0 0 0 0 0 0 0 0 0 0 0 0 0 0 0 0
ST_mem_lat_dist  0 0 0 0 0 0 0 0 0 0 0 0 0 0 0 0 0 0 0 0 0 0 0 0 0 0 0
Traffic 0 Stat
%=================================
% Average latency = 55.1558
% Accepted packets = 0 at node 0 (avg = 0.0134326)
lat(1) = 55.1558;
thru(1,:) = [ 0 0 0 0 0 0 0 0 0 0 0 0 0 0 0.0601283 0.0598687 0.0598316 0.0693646 0.0597574 0 0 0 0 ];
% latency change    = 1
% throughput change = 1
Traffic 1 Stat
%=================================
% Average latency = 16.0961
% Accepted packets = 0 at node 14 (avg = 0.0654666)
lat(2) = 16.0961;
thru(2,:) = [ 0.153826 0.0843503 0.143996 0.0823102 0.146408 0.143255 0.144738 0.0714047 0.0971104 0.0728885 0.0728885 0.0749286 0.144367 0.0732594 0 0 0 0 0 0 0 0 0 ];
% latency change    = 2.42666
% throughput change = 0.794817
----------------------------Interconnect-DETAILS---------------------------------=======Traffic[0]class0 ======
Traffic[0]class0Overall average latency = 55.1558 (1 samples)
Traffic[0]class0Overall average accepted rate = 0.0134326 (1 samples)
Traffic[0]class0Overall min accepted rate = 0 (1 samples)
traffic_manager/latency_stat_0_freq = [ 0 4656 738 116 55 36 12 16 14 7 6 7 7 4 12 15 3 13 8 14 1 16 7 7 7 11 9 12 3 8 7 9 6 8 4 8 3 8 3 11 5 16 2 6 5 13 3 13 5 9 5 9 9 13 2 12 6 13 6 16 4 8 2 17 2 14 4 10 1 17 7 10 5 16 4 15 1 14 11 11 11 17 6 15 8 11 3 14 7 20 8 19 5 7 2 15 5 12 3 21 4 11 3 8 3 20 2 18 8 10 3 11 6 14 5 21 7 16 5 10 3 12 4 13 8 15 8 14 5 8 7 14 4 14 6 17 5 13 5 16 5 15 4 16 5 8 7 15 7 8 5 13 4 18 2 11 4 18 4 10 5 15 4 10 6 14 0 7 1 6 5 6 5 12 5 13 4 9 3 13 7 14 1 15 2 7 2 11 3 11 4 12 3 5 3 9 2 11 1 7 1 13 4 12 1 8 2 10 4 9 3 14 2 8 2 5 5 20 2 14 4 6 10 10 1 12 3 8 0 18 5 17 3 13 8 19 4 8 3 13 1 7 3 11 5 8 0 11 3 11 4 11 4 6 2 14 2 6 3 7 3 9 1 8 3 8 4 5 0 5 1 6 3 10 1 1 3 8 0 7 1 7 2 6 1 6 2 5 2 13 2 7 0 9 0 6 2 9 1 10 1 11 0 7 1 6 1 4 2 8 0 6 0 3 1 2 0 4 1 2 1 6 1 6 0 4 2 3 2 5 0 4 1 1 2 0 1 6 0 4 0 0 0 1 1 2 0 4 0 5 0 2 0 6 1 5 0 4 0 3 0 2 0 3 0 4 0 2 0 4 1 0 3 0 0 3 1 4 0 4 0 4 0 2 0 6 2 0 2 3 1 3 0 3 0 6 0 5 0 3 0 3 0 6 0 1 0 0 0 1 0 1 1 1 0 1 0 2 1 1 0 2 1 1 0 2 0 1 0 1 0 1 0 2 1 0 1 1 0 3 0 2 1 0 0 3 1 0 0 0 0 1 0 1 0 0 0 2 0 1 0 3 0 2 0 1 0 3 1 0 0 1 0 2 1 1 1 2 0 1 1 0 1 0 0 1 0 5 0 1 0 3 0 3 0 1 0 0 0 1 0 0 0 2 0 3 0 1 0 1 0 0 0 0 0 0 0 0 0 1 0 1 0 0 0 0 0 0 0 0 0 1 0 0 0 1 0 0 0 0 0 1 0 1 0 0 0 1 0 1 0 0 0 0 0 1 0 0 0 0 0 0 0 0 0 1 0 2 1 0 0 1 0 1 0 0 0 0 0 0 0 0 0 1 0 0 0 0 0 1 0 2 0 0 0 1 0 0 1 0 0 2 0 0 0 0 0 0 1 1 0 1 0 0 0 1 0 0 0 0 0 0 0 0 0 0 0 1 0 0 0 0 0 0 0 0 0 0 0 0 0 0 0 0 0 1 0 1 0 0 0 0 0 0 0 0 0 0 0 0 0 0 0 0 0 0 0 0 0 0 0 0 0 0 0 0 0 1 0 0 0 0 0 0 0 0 0 0 0 0 0 0 0 0 0 0 0 0 0 0 0 0 0 0 0 0 0 0 0 0 0 0 0 0 0 0 0 0 0 0 0 0 0 0 0 0 0 0 0 0 0 0 0 0 0 0 0 0 0 0 0 0 0 0 0 0 0 0 0 0 0 0 0 0 0 0 0 0 0 0 0 0 0 0 0 0 0 0 0 0 0 0 0 0 0 0 0 0 0 0 0 0 0 0 0 0 0 0 0 0 0 0 0 0 0 0 0 0 0 0 0 0 0 0 0 0 0 0 0 0 0 0 0 0 0 0 0 0 0 0 0 0 0 0 0 0 0 0 0 0 0 0 0 0 0 0 0 0 0 0 0 0 0 0 0 0 0 0 0 0 0 0 0 0 0 0 0 0 0 0 0 0 0 0 0 0 0 0 0 0 0 0 0 0 0 0 0 0 0 0 0 0 0 0 0 0 0 0 0 0 0 0 0 0 0 0 0 0 0 0 0 0 0 0 0 0 0 0 0 0 0 0 0 0 0 0 0 0 0 0 0 0 0 0 0 0 0 0 0 0 0 0 0 0 0 0 0 0 0 0 0 0 0 0 0 0 0 0 0 0 0 0 0 0 0 0 0 0 0 0 0 0 0 0 0 0 0 0 0 0 0 0 0 0 0 0 0 0 0 0 0 0 0 0 0 0 0 0 0 0 0 0 0 0 0 0 0 0 0 0 ];
Traffic[0]class1Average hops = 1 (8201 samples)
traffic_manager/hop_stats_freq = [ 0 8201 0 0 0 0 0 0 0 0 0 0 0 0 0 0 0 0 0 0 ];
=======Traffic[1]class0 ======
Traffic[1]class0Overall average latency = 16.0961 (1 samples)
Traffic[1]class0Overall average accepted rate = 0.0654666 (1 samples)
Traffic[1]class0Overall min accepted rate = 0 (1 samples)
traffic_manager/latency_stat_0_freq = [ 0 0 110 2 2 720 158 90 263 429 173 171 152 176 246 158 2516 129 129 147 119 1128 79 64 76 48 468 17 18 22 12 177 11 13 9 14 81 4 4 3 3 41 1 2 2 0 7 1 1 0 0 3 0 0 0 1 1 0 0 0 0 0 0 0 0 0 0 0 0 0 0 0 0 0 0 0 0 0 0 0 0 0 0 0 0 0 0 0 0 0 0 0 0 0 0 0 0 0 0 0 0 0 0 0 0 0 0 0 0 0 0 0 0 0 0 0 0 0 0 0 0 0 0 0 0 0 0 0 0 0 0 0 0 0 0 0 0 0 0 0 0 0 0 0 0 0 0 0 0 0 0 0 0 0 0 0 0 0 0 0 0 0 0 0 0 0 0 0 0 0 0 0 0 0 0 0 0 0 0 0 0 0 0 0 0 0 0 0 0 0 0 0 0 0 0 0 0 0 0 0 0 0 0 0 0 0 0 0 0 0 0 0 0 0 0 0 0 0 0 0 0 0 0 0 0 0 0 0 0 0 0 0 0 0 0 0 0 0 0 0 0 0 0 0 0 0 0 0 0 0 0 0 0 0 0 0 0 0 0 0 0 0 0 0 0 0 0 0 0 0 0 0 0 0 0 0 0 0 0 0 0 0 0 0 0 0 0 0 0 0 0 0 0 0 0 0 0 0 0 0 0 0 0 0 0 0 0 0 0 0 0 0 0 0 0 0 0 0 0 0 0 0 0 0 0 0 0 0 0 0 0 0 0 0 0 0 0 0 0 0 0 0 0 0 0 0 0 0 0 0 0 0 0 0 0 0 0 0 0 0 0 0 0 0 0 0 0 0 0 0 0 0 0 0 0 0 0 0 0 0 0 0 0 0 0 0 0 0 0 0 0 0 0 0 0 0 0 0 0 0 0 0 0 0 0 0 0 0 0 0 0 0 0 0 0 0 0 0 0 0 0 0 0 0 0 0 0 0 0 0 0 0 0 0 0 0 0 0 0 0 0 0 0 0 0 0 0 0 0 0 0 0 0 0 0 0 0 0 0 0 0 0 0 0 0 0 0 0 0 0 0 0 0 0 0 0 0 0 0 0 0 0 0 0 0 0 0 0 0 0 0 0 0 0 0 0 0 0 0 0 0 0 0 0 0 0 0 0 0 0 0 0 0 0 0 0 0 0 0 0 0 0 0 0 0 0 0 0 0 0 0 0 0 0 0 0 0 0 0 0 0 0 0 0 0 0 0 0 0 0 0 0 0 0 0 0 0 0 0 0 0 0 0 0 0 0 0 0 0 0 0 0 0 0 0 0 0 0 0 0 0 0 0 0 0 0 0 0 0 0 0 0 0 0 0 0 0 0 0 0 0 0 0 0 0 0 0 0 0 0 0 0 0 0 0 0 0 0 0 0 0 0 0 0 0 0 0 0 0 0 0 0 0 0 0 0 0 0 0 0 0 0 0 0 0 0 0 0 0 0 0 0 0 0 0 0 0 0 0 0 0 0 0 0 0 0 0 0 0 0 0 0 0 0 0 0 0 0 0 0 0 0 0 0 0 0 0 0 0 0 0 0 0 0 0 0 0 0 0 0 0 0 0 0 0 0 0 0 0 0 0 0 0 0 0 0 0 0 0 0 0 0 0 0 0 0 0 0 0 0 0 0 0 0 0 0 0 0 0 0 0 0 0 0 0 0 0 0 0 0 0 0 0 0 0 0 0 0 0 0 0 0 0 0 0 0 0 0 0 0 0 0 0 0 0 0 0 0 0 0 0 0 0 0 0 0 0 0 0 0 0 0 0 0 0 0 0 0 0 0 0 0 0 0 0 0 0 0 0 0 0 0 0 0 0 0 0 0 0 0 0 0 0 0 0 0 0 0 0 0 0 0 0 0 0 0 0 0 0 0 0 0 0 0 0 0 0 0 0 0 0 0 0 0 0 0 0 0 0 0 0 0 0 0 0 0 0 0 0 0 0 0 0 0 0 0 0 0 0 0 0 0 0 0 0 0 0 0 0 0 0 0 0 0 0 0 0 0 0 0 0 0 0 0 0 0 0 0 0 0 0 0 0 0 0 0 0 0 0 0 0 0 0 0 0 0 0 0 0 0 0 0 0 0 0 0 0 0 0 0 0 0 0 0 0 0 0 0 0 0 0 0 0 0 0 0 0 0 0 0 0 0 0 0 0 0 0 0 0 0 0 0 0 0 0 0 0 0 0 0 0 0 0 0 0 0 0 0 0 0 0 0 0 0 0 0 0 0 0 0 ];
Traffic[1]class1Average hops = 1 (8201 samples)
traffic_manager/hop_stats_freq = [ 0 8201 0 0 0 0 0 0 0 0 0 0 0 0 0 0 0 0 0 0 ];
----------------------------END-of-Interconnect-DETAILS-------------------------

gpgpu_simulation_time = 0 days, 0 hrs, 0 min, 10 sec (10 sec)
gpgpu_simulation_rate = 550086 (inst/sec)
gpgpu_simulation_rate = 1348 (cycle/sec)

kernel '_Z26histo_intermediates_kernelP5uint2jjjP6uchar4' transfer to GPU hardware scheduler
kernel_name = _Z26histo_intermediates_kernelP5uint2jjjP6uchar4 
kernel_launch_uid = 2 
gpu_sim_cycle = 110547
gpu_sim_insn = 15893670
gpu_ipc =     143.7730
gpu_tot_sim_cycle = 124027
gpu_tot_sim_insn = 21394534
gpu_tot_ipc =     172.4990
gpu_tot_issued_cta = 0
gpu_stall_dramfull = 223969
gpu_stall_icnt2sh    = 56901
gpu_total_sim_rate=324159
Cache L1D_000:	Size = 16384 B (32 Set x 4-way x 128 byte line)
		Access = 5136, Miss = 3924 (0.764), PendingHit = 373 (0.0726)
Cache L1D_001:	Size = 16384 B (32 Set x 4-way x 128 byte line)
		Access = 5226, Miss = 4477 (0.857), PendingHit = 227 (0.0434)
Cache L1D_002:	Size = 16384 B (32 Set x 4-way x 128 byte line)
		Access = 5136, Miss = 3682 (0.717), PendingHit = 516 (0.1)
Cache L1D_003:	Size = 16384 B (32 Set x 4-way x 128 byte line)
		Access = 5348, Miss = 4378 (0.819), PendingHit = 277 (0.0518)
Cache L1D_004:	Size = 16384 B (32 Set x 4-way x 128 byte line)
		Access = 5860, Miss = 4773 (0.815), PendingHit = 375 (0.064)
Cache L1D_005:	Size = 16384 B (32 Set x 4-way x 128 byte line)
		Access = 3566, Miss = 2718 (0.762), PendingHit = 197 (0.0552)
Cache L1D_006:	Size = 16384 B (32 Set x 4-way x 128 byte line)
		Access = 4416, Miss = 3263 (0.739), PendingHit = 625 (0.142)
Cache L1D_007:	Size = 16384 B (32 Set x 4-way x 128 byte line)
		Access = 2928, Miss = 2451 (0.837), PendingHit = 207 (0.0707)
Cache L1D_008:	Size = 16384 B (32 Set x 4-way x 128 byte line)
		Access = 5602, Miss = 4492 (0.802), PendingHit = 338 (0.0603)
Cache L1D_009:	Size = 16384 B (32 Set x 4-way x 128 byte line)
		Access = 5094, Miss = 4416 (0.867), PendingHit = 170 (0.0334)
Cache L1D_010:	Size = 16384 B (32 Set x 4-way x 128 byte line)
		Access = 5098, Miss = 4332 (0.85), PendingHit = 190 (0.0373)
Cache L1D_011:	Size = 16384 B (32 Set x 4-way x 128 byte line)
		Access = 2930, Miss = 2413 (0.824), PendingHit = 121 (0.0413)
Cache L1D_012:	Size = 16384 B (32 Set x 4-way x 128 byte line)
		Access = 3690, Miss = 2892 (0.784), PendingHit = 257 (0.0696)
Cache L1D_013:	Size = 16384 B (32 Set x 4-way x 128 byte line)
		Access = 2928, Miss = 2247 (0.767), PendingHit = 179 (0.0611)
total_dl1_misses=50458
total_dl1_accesses=62958
total_dl1_miss_rate= 0.801455
Shader 0 dynamic_warp_id issue ditsribution:
dynamic_warp_id:
0, 1, 2, 3, 4, 5, 6, 7, 8, 9, 10, 11, 12, 13, 14, 15, 16, 17, 18, 19, 20, 21, 22, 23, 24, 25, 26, 27, 28, 29, 30, 31, 32, 33, 34, 35, 36, 37, 38, 39, 40, 41, 42, 43, 44, 45, 46, 47, 48, 49, 50, 51, 52, 53, 54, 55, 56, 57, 58, 59, 60, 61, 62, 63, 64, 65, 66, 67, 68, 69, 70, 71, 72, 73, 74, 75, 76, 77, 78, 79, 80, 81, 82, 83, 84, 85, 86, 87, 88, 89, 90, 91, 92, 93, 94, 95, 96, 97, 98, 99, 100, 101, 102, 103, 104, 105, 106, 107, 108, 109, 110, 111, 112, 113, 114, 115, 116, 117, 118, 119, 120, 121, 122, 123, 124, 125, 126, 127, 128, 129, 130, 131, 132, 133, 134, 135, 136, 137, 138, 139, 140, 141, 142, 143, 144, 145, 146, 147, 148, 149, 150, 151, 152, 153, 154, 155, 156, 157, 158, 159, 160, 161, 162, 163, 164, 165, 166, 167, 168, 169, 170, 171, 172, 173, 174, 175, 
distro:
269, 201, 188, 188, 175, 175, 175, 175, 162, 162, 162, 162, 162, 162, 162, 162, 269, 201, 188, 188, 175, 175, 175, 175, 162, 162, 162, 162, 162, 162, 162, 162, 269, 201, 188, 188, 175, 175, 175, 175, 162, 162, 162, 162, 162, 162, 162, 162, 269, 201, 188, 188, 175, 175, 175, 175, 162, 162, 162, 162, 162, 162, 162, 162, 269, 201, 188, 188, 175, 175, 175, 175, 162, 162, 162, 162, 162, 162, 162, 162, 269, 201, 188, 188, 175, 175, 175, 175, 162, 162, 162, 162, 162, 162, 162, 162, 507, 507, 507, 507, 507, 507, 507, 507, 507, 507, 507, 507, 507, 507, 507, 507, 507, 507, 507, 507, 507, 507, 507, 507, 507, 507, 507, 507, 507, 507, 507, 507, 507, 507, 507, 507, 507, 507, 507, 507, 507, 507, 507, 507, 507, 507, 507, 507, 507, 507, 507, 507, 507, 507, 507, 507, 507, 507, 507, 507, 507, 507, 507, 507, 507, 507, 507, 507, 507, 507, 507, 507, 507, 507, 507, 507, 507, 507, 507, 507, 
gpgpu_n_tot_thrd_icount = 22693376
gpgpu_n_tot_w_icount = 709168
gpgpu_n_icache_hits = 368800
gpgpu_n_icache_misses = 16280
gpgpu_n_l1dcache_read_hits = 8448
gpgpu_n_l1dcache_read_misses = 54510
gpgpu_n_l1dcache_write_accesses = 154440
gpgpu_n_l1dcache_wirte_misses = 154440
gpgpu_n_tcache_hits = 0
gpgpu_n_tcache_misses = 0
gpgpu_n_ccache_hits = 55728
gpgpu_n_ccache_misses = 448
gpgpu_n_stall_shd_mem = 1161947
gpgpu_n_mem_read_local = 0
gpgpu_n_mem_write_local = 0
gpgpu_n_mem_read_global = 50586
gpgpu_n_mem_write_global = 154440
gpgpu_n_mem_texture = 0
gpgpu_n_mem_const = 14
gpgpu_n_load_insn  = 1553984
gpgpu_n_store_insn = 2071680
gpgpu_n_shmem_insn = 782208
gpgpu_n_tex_insn = 0
gpgpu_n_const_mem_insn = 0
gpgpu_n_param_mem_insn = 3498476
gpgpu_n_shmem_bkconflict = 0
gpgpu_n_cache_bkconflict = 0
gpgpu_n_intrawarp_mshr_merge = 0
gpgpu_n_cmem_portconflict = 1813
gpgpu_stall_shd_mem[c_mem][bk_conf] = 1813
gpgpu_stall_shd_mem[c_mem][mshr_rc] = 0
gpgpu_stall_shd_mem[c_mem][icnt_rc] = 0
gpgpu_stall_shd_mem[t_mem][mshr_rc] = 0
gpgpu_stall_shd_mem[t_mem][icnt_rc] = 0
gpgpu_stall_shd_mem[s_mem][bk_conf] = 0
gpgpu_stall_shd_mem[gl_mem][bk_conf] = 0
gpgpu_stall_shd_mem[gl_mem][coal_stall] = 1160134
gpgpu_stall_shd_mem[g_mem_ld][mshr_rc] = 0
gpgpu_stall_shd_mem[g_mem_ld][icnt_rc] = 0
gpgpu_stall_shd_mem[g_mem_ld][wb_icnt_rc] = 0
gpgpu_stall_shd_mem[g_mem_ld][wb_rsrv_fail] = 0
gpgpu_stall_shd_mem[g_mem_st][mshr_rc] = 0
gpgpu_stall_shd_mem[g_mem_st][icnt_rc] = 0
gpgpu_stall_shd_mem[g_mem_st][wb_icnt_rc] = 0
gpgpu_stall_shd_mem[g_mem_st][wb_rsrv_fail] = 0
gpgpu_stall_shd_mem[l_mem_ld][mshr_rc] = 0
gpgpu_stall_shd_mem[l_mem_ld][icnt_rc] = 0
gpgpu_stall_shd_mem[l_mem_ld][wb_icnt_rc] = 0
gpgpu_stall_shd_mem[l_mem_ld][wb_rsrv_fail] = 0
gpgpu_stall_shd_mem[l_mem_st][mshr_rc] = 0
gpgpu_stall_shd_mem[l_mem_st][icnt_rc] = 0
gpgpu_stall_shd_mem[l_mem_ld][wb_icnt_rc] = 0
gpgpu_stall_shd_mem[l_mem_ld][wb_rsrv_fail] = 0
gpu_reg_bank_conflict_stalls = 0
Warp Occupancy Distribution:
Stall:1708193	W0_Idle:430528	W0_Scoreboard:57813	W1:1472	W2:512	W3:0	W4:512	W5:0	W6:0	W7:1088	W8:512	W9:0	W10:0	W11:0	W12:0	W13:0	W14:0	W15:0	W16:512	W17:0	W18:32955	W19:0	W20:0	W21:0	W22:0	W23:0	W24:0	W25:0	W26:0	W27:0	W28:0	W29:0	W30:0	W31:0	W32:671605
maxmrqlatency = 271 
maxdqlatency = 0 
maxmflatency = 797 
averagemflatency = 335 
max_icnt2mem_latency = 2385 
max_icnt2sh_latency = 124026 
mrq_lat_table:57351 	4187 	7752 	28732 	50099 	58597 	27554 	3062 	3 	0 	0 	0 	0 	0 	0 	0 	0 	0 	0 	0 	0 	0 	0 	0 	0 	0 	0 	0 	0 	0 	0 	0 	
dq_lat_table:0 	0 	0 	0 	0 	0 	0 	0 	0 	0 	0 	0 	0 	0 	0 	0 	0 	0 	0 	0 	0 	0 	0 	0 	0 	0 	0 	0 	0 	0 	0 	0 	
mf_lat_table:0 	0 	0 	0 	0 	0 	6312 	36203 	152652 	9873 	0 	0 	0 	0 	0 	0 	0 	0 	0 	0 	0 	0 	0 	0 	0 	0 	0 	0 	0 	0 	0 	0 	
icnt2mem_lat_table:242 	8312 	2597 	3851 	20771 	45415 	44786 	68300 	11640 	104 	55 	1 	0 	0 	0 	0 	0 	0 	0 	0 	0 	0 	0 	0 	
icnt2sh_lat_table:110 	20757 	17990 	11015 	726 	2 	0 	0 	0 	0 	0 	0 	0 	2465 	26703 	45908 	79364 	0 	0 	0 	0 	0 	0 	0 	
mf_lat_pw_table:0 	0 	0 	0 	0 	0 	12 	18 	212 	0 	0 	0 	0 	0 	0 	0 	0 	0 	0 	0 	0 	0 	0 	0 	0 	0 	0 	0 	0 	0 	0 	0 	
maximum concurrent accesses to same row:
dram[0]:        24        24        21        20       110        86        26        26        21        47        25        21        35        27        23        21 
dram[1]:        23        23        19        23       103        85        30        29        21        36        27        18        36        22        20        38 
dram[2]:        26        20        19        25       102        89        31        34        34        52        24        21        25        21        20        33 
dram[3]:        21        36        23        20       101        86        24        27        24        48        23        21        26        19        17        27 
dram[4]:        41        33        19        32        68        83        30        21        21        66        25        23        39        22        21        42 
maximum service time to same row:
dram[0]:      5806      6826      1638      1403      9766      7581      7199      8114      5548      1876      8198      5135      1764      5732      5899      1924 
dram[1]:      3828      6844      1204      1378      9537      7538      4002      8159      5490      1810      8226      5157      1979      5479      5850      1900 
dram[2]:      5056      6851      1232      1462      9952      7064      8205      8191      5628      1658      8228      5137      1692      5450      5211      1700 
dram[3]:      4962      6863      1222      4392     10012      7087      8006      8172      5558      1841      8241      5050      1338      5578      5433      1972 
dram[4]:      3971      6799      1230      1742      6789      7009      6793      8173      5787      2264      8192      5150      1991      5678      5453      2335 
average row accesses per activate:
dram[0]:  3.811634  3.918956  3.998628  3.906425  4.344780  4.347383  3.886719  4.106501  4.052703  3.986842  3.926166  4.197051  3.900510  4.210307  4.161065  4.009957 
dram[1]:  3.886395  4.006964  3.925876  3.825375  4.303694  4.203366  4.098361  3.978581  4.065129  4.167353  3.960474  4.325000  3.980315  4.090663  4.162429  4.123547 
dram[2]:  3.860724  3.972528  3.887399  3.952448  4.388039  4.185237  4.255350  4.064384  4.197756  4.187070  3.863636  4.115385  4.051862  4.162791  4.061898  4.104348 
dram[3]:  3.858333  3.848118  3.902145  3.898611  4.384615  4.309593  4.386197  4.091667  4.142462  4.137978  3.935780  4.195448  4.009247  4.121253  3.945406  3.857723 
dram[4]:  3.864146  3.933610  4.000000  4.090379  4.364771  4.302594  4.201118  4.157821  3.965472  4.065596  3.892903  4.053040  3.936528  3.969895  4.074176  3.973164 
average row locality = 237337/58446 = 4.060791
number of total memory accesses made:
dram[0]:         0         0         0         0         0         0         0         0         0         0         0         0         0         0         0         0 
dram[1]:         0         0         0         0         0         0         0         0         0         0         0         0         0         0         0         0 
dram[2]:         0         0         0         0         0         0         0         0         0         0         0         0         0         0         0         0 
dram[3]:         0         0         0         0         0         0         0         0         0         0         0         0         0         0         0         0 
dram[4]:         0         0         0         0         0         0         0         0         0         0         0         0         0         0         0         0 
total accesses: 0
min_bank_accesses = 0!
min_chip_accesses = 0!
number of total read accesses:
dram[0]:      1141      1202      1230      1159      1284      1218      1192      1191      1238      1227      1257      1300      1262      1216      1247      1198 
dram[1]:      1150      1218      1237      1172      1275      1226      1194      1199      1229      1227      1236      1281      1244      1215      1239      1203 
dram[2]:      1153      1233      1234      1182      1278      1222      1179      1188      1222      1226      1223      1278      1249      1233      1247      1209 
dram[3]:      1154      1211      1228      1164      1268      1208      1177      1181      1222      1223      1241      1298      1251      1232      1254      1213 
dram[4]:      1142      1203      1230      1155      1272      1211      1190      1195      1230      1232      1256      1295      1260      1231      1252      1199 
total reads: 97741
bank skew: 1300/1141 = 1.14
chip skew: 19562/19525 = 1.00
number of total write accesses:
dram[0]:      1611      1651      1685      1638      1879      1773      1793      1778      1761      1803      1774      1831      1796      1807      1724      1621 
dram[1]:      1621      1659      1676      1632      1871      1771      1806      1773      1767      1811      1770      1833      1789      1808      1708      1634 
dram[2]:      1619      1659      1666      1644      1877      1783      1804      1779      1771      1818      1752      1825      1798      1810      1706      1623 
dram[3]:      1624      1652      1683      1643      1867      1757      1810      1765      1773      1806      1762      1836      1784      1793      1709      1634 
dram[4]:      1617      1641      1682      1651      1875      1775      1818      1782      1756      1805      1761      1838      1779      1802      1714      1614 
total reads: 139596
bank skew: 1879/1611 = 1.17
chip skew: 27934/27898 = 1.00
average mf latency per bank:
dram[0]:        289       289       288       290       277       293       298       286       285       286       284       284       288       281       281       293
dram[1]:        290       291       295       297       282       293       295       291       286       289       285       291       297       286       282       292
dram[2]:        291       293       299       294       281       294       300       288       283       284       292       290       296       286       286       292
dram[3]:        286       287       289       291       274       290       292       285       283       288       284       285       288       281       280       290
dram[4]:        293       296       302       298       287       299       299       296       289       292       293       290       296       288       286       303
maximum mf latency per bank:
dram[0]:        758       658       770       703       719       768       743       673       651       766       707       688       698       623       718       768
dram[1]:        637       639       761       707       762       690       724       691       744       747       752       668       671       675       638       651
dram[2]:        674       644       774       688       701       792       736       741       746       675       703       717       790       743       674       755
dram[3]:        662       690       726       630       664       638       658       750       692       671       703       711       795       720       793       659
dram[4]:        687       706       795       671       641       690       735       666       712       797       715       778       654       688       691       767

Number of Memory Banks Accessed per Memory Operation per Warp (from 0):
0	0	0	0	0	0	0	0	0	0	0	0	0	0	0	0	0	0	0	0	0	0	0	0	0	0	0	0	0	0	0	0	0	0	0	0	0	0	0	0	0	0	0	0	0	0	0	0	0	0	0	0	0	0	0	0	0	0	0	0	0	0	0	0	0	0	0	0	0	0	0	0	0	0	0	0	0	0	0	0	
Average # of Memory Banks Accessed per Memory Operation per Warp=-nan

position of mrq chosen
0	0	0	0	0	0	0	0	0	0	0	0	0	0	0	0	

average position of mrq chosen = -nan
gpgpu_l2_write_miss = 0
gpgpu_l2_write_access = 0
gpgpu_l2_read_miss = 0
gpgpu_l2_read_access = 0
Cache L2_bank_000:
MSHR contents

DRAM[0]: 16 bks, busW=4 BL=8 CL=12, tRRD=2 tCCD=6, tRCD=12 tRAS=28 tRP=12 tRC=40
n_cmd=279057 n_nop=186493 n_act=11740 n_pre=11724 n_req=47487 n_rd=39124 n_write=29976 bw_util=0.4952
n_activity=247285 dram_eff=0.5589
bk0: 2282a 210661i bk1: 2404a 209299i bk2: 2460a 206506i bk3: 2318a 206588i bk4: 2568a 208607i bk5: 2436a 203789i bk6: 2384a 205042i bk7: 2382a 205165i bk8: 2476a 202547i bk9: 2454a 200251i bk10: 2514a 203901i bk11: 2600a 199501i bk12: 2524a 194485i bk13: 2432a 190582i bk14: 2494a 175648i bk15: 2396a 135662i 
dram_util_bins: 0 0 0 0 0 0 0 0 0 0
dram_eff_bins: 0 0 0 0 0 0 0 0 0 0
mrqq: max=16 avg=11.1676
Cache L2_bank_001:
MSHR contents

DRAM[1]: 16 bks, busW=4 BL=8 CL=12, tRRD=2 tCCD=6, tRCD=12 tRAS=28 tRP=12 tRC=40
n_cmd=279057 n_nop=186647 n_act=11672 n_pre=11656 n_req=47474 n_rd=39090 n_write=29992 bw_util=0.4951
n_activity=247150 dram_eff=0.559
bk0: 2300a 211809i bk1: 2436a 208639i bk2: 2474a 205385i bk3: 2344a 205523i bk4: 2550a 206984i bk5: 2452a 204451i bk6: 2388a 205520i bk7: 2398a 205472i bk8: 2458a 202723i bk9: 2454a 200458i bk10: 2472a 203349i bk11: 2562a 198146i bk12: 2488a 195251i bk13: 2430a 190253i bk14: 2478a 176382i bk15: 2406a 135304i 
dram_util_bins: 0 0 0 0 0 0 0 0 0 0
dram_eff_bins: 0 0 0 0 0 0 0 0 0 0
mrqq: max=16 avg=11.1767
Cache L2_bank_002:
MSHR contents

DRAM[2]: 16 bks, busW=4 BL=8 CL=12, tRRD=2 tCCD=6, tRCD=12 tRAS=28 tRP=12 tRC=40
n_cmd=279057 n_nop=186700 n_act=11640 n_pre=11624 n_req=47490 n_rd=39112 n_write=29981 bw_util=0.4952
n_activity=246702 dram_eff=0.5601
bk0: 2306a 210563i bk1: 2466a 207470i bk2: 2468a 204624i bk3: 2364a 204881i bk4: 2556a 206649i bk5: 2444a 204161i bk6: 2358a 205112i bk7: 2376a 204930i bk8: 2444a 202854i bk9: 2452a 200328i bk10: 2446a 202657i bk11: 2556a 197274i bk12: 2498a 193921i bk13: 2466a 189861i bk14: 2494a 176526i bk15: 2418a 135381i 
dram_util_bins: 0 0 0 0 0 0 0 0 0 0
dram_eff_bins: 0 0 0 0 0 0 0 0 0 0
mrqq: max=16 avg=11.1289
Cache L2_bank_003:
MSHR contents

DRAM[3]: 16 bks, busW=4 BL=8 CL=12, tRRD=2 tCCD=6, tRCD=12 tRAS=28 tRP=12 tRC=40
n_cmd=279057 n_nop=186699 n_act=11679 n_pre=11663 n_req=47423 n_rd=39050 n_write=29966 bw_util=0.4946
n_activity=246317 dram_eff=0.5604
bk0: 2308a 210883i bk1: 2422a 209077i bk2: 2456a 205460i bk3: 2328a 205585i bk4: 2536a 207710i bk5: 2416a 204647i bk6: 2354a 205482i bk7: 2362a 205859i bk8: 2444a 202928i bk9: 2446a 199355i bk10: 2482a 201710i bk11: 2596a 197405i bk12: 2502a 194897i bk13: 2464a 191387i bk14: 2508a 176567i bk15: 2426a 136043i 
dram_util_bins: 0 0 0 0 0 0 0 0 0 0
dram_eff_bins: 0 0 0 0 0 0 0 0 0 0
mrqq: max=16 avg=11.0567
Cache L2_bank_004:
MSHR contents

DRAM[4]: 16 bks, busW=4 BL=8 CL=12, tRRD=2 tCCD=6, tRCD=12 tRAS=28 tRP=12 tRC=40
n_cmd=279057 n_nop=186558 n_act=11718 n_pre=11702 n_req=47463 n_rd=39106 n_write=29973 bw_util=0.4951
n_activity=246897 dram_eff=0.5596
bk0: 2284a 210056i bk1: 2406a 207978i bk2: 2460a 204802i bk3: 2310a 205542i bk4: 2544a 207525i bk5: 2422a 204346i bk6: 2380a 204321i bk7: 2390a 204020i bk8: 2460a 202213i bk9: 2464a 200314i bk10: 2512a 202563i bk11: 2590a 197533i bk12: 2520a 194871i bk13: 2462a 189455i bk14: 2504a 175345i bk15: 2398a 134453i 
dram_util_bins: 0 0 0 0 0 0 0 0 0 0
dram_eff_bins: 0 0 0 0 0 0 0 0 0 0
mrqq: max=16 avg=11.1039
Cache L2_bank_000:	Size = 131072 B (64 Set x 16-way x 128 byte line)
		Access = 41223, Miss = 19562 (0.475), PendingHit = 15367 (0.373)
Cache L2_bank_001:	Size = 131072 B (64 Set x 16-way x 128 byte line)
		Access = 41157, Miss = 19545 (0.475), PendingHit = 15370 (0.373)
Cache L2_bank_002:	Size = 131072 B (64 Set x 16-way x 128 byte line)
		Access = 41170, Miss = 19556 (0.475), PendingHit = 15385 (0.374)
Cache L2_bank_003:	Size = 131072 B (64 Set x 16-way x 128 byte line)
		Access = 41302, Miss = 19525 (0.473), PendingHit = 15357 (0.372)
Cache L2_bank_004:	Size = 131072 B (64 Set x 16-way x 128 byte line)
		Access = 41222, Miss = 19553 (0.474), PendingHit = 15355 (0.372)
L2 Cache Total Miss Rate = 0.474

icnt_total_pkts_mem_to_simt=412198
icnt_total_pkts_simt_to_mem=360514

LD_mem_lat_dist  0 0 0 0 0 0 0 0 0 0 0 0 0 0 0 0 0 0 0 0 0 0 0 0 0 0 0
ST_mem_lat_dist  0 0 0 0 0 0 0 0 0 0 0 0 0 0 0 0 0 0 0 0 0 0 0 0 0 0 0
Traffic 0 Stat
%=================================
% Average latency = 122.87
% Accepted packets = 0 at node 0 (avg = 0.0692829)
lat(3) = 122.87;
thru(3,:) = [ 0 0 0 0 0 0 0 0 0 0 0 0 0 0 0.318825 0.318558 0.318622 0.318635 0.318866 0 0 0 0 ];
% latency change    = 0.868999
% throughput change = 0.0550829
Traffic 1 Stat
%=================================
% Average latency = 5.43092
% Accepted packets = 0 at node 14 (avg = 0.0730767)
lat(4) = 5.43092;
thru(4,:) = [ 0.125581 0.157744 0.121306 0.155392 0.156862 0.077447 0.101129 0.0802061 0.156522 0.157359 0.155731 0.0788266 0.0814725 0.0751856 0 0 0 0 0 0 0 0 0 ];
% latency change    = 21.6241
% throughput change = 0.0519153
----------------------------Interconnect-DETAILS---------------------------------=======Traffic[0]class0 ======
Traffic[0]class0Overall average latency = 89.0128 (2 samples)
Traffic[0]class0Overall average accepted rate = 0.0413578 (2 samples)
Traffic[0]class0Overall min accepted rate = 0 (2 samples)
traffic_manager/latency_stat_0_freq = [ 0 2245 3020 522 552 264 422 203 367 235 351 251 323 297 363 452 1671 2039 1628 1674 1777 1851 1879 1986 1940 2116 1998 2144 2105 2144 2213 2112 2111 2069 2039 2035 2018 1980 2013 1951 1979 1788 1949 1761 1724 1691 1589 1573 1598 1534 1528 1469 1444 1457 1424 1345 1377 1220 1217 1252 1206 1212 1116 1127 1053 1082 1032 1024 1044 996 977 952 914 873 840 837 848 835 872 770 745 750 743 714 702 733 694 687 651 729 610 613 559 654 605 646 635 646 631 607 552 542 523 542 476 508 471 514 505 501 458 436 422 453 428 447 414 408 440 421 334 415 338 419 351 366 366 371 329 417 363 381 340 302 283 339 312 319 376 295 331 349 300 280 303 315 321 299 283 308 280 303 276 271 282 291 258 254 287 286 292 276 245 283 273 306 252 274 218 297 263 266 255 278 245 255 248 262 228 227 242 294 244 234 241 271 228 279 234 221 208 257 218 273 206 255 209 240 229 246 226 232 220 247 246 227 240 214 202 222 188 224 237 256 227 237 226 274 221 266 232 217 215 237 228 248 230 222 218 212 230 238 244 241 210 224 205 252 204 224 195 195 186 196 195 195 199 204 200 206 209 199 233 213 202 178 200 198 197 197 193 205 177 216 189 209 189 195 216 213 200 215 188 203 195 215 175 193 192 193 206 196 201 207 198 193 205 218 225 140 183 147 178 166 200 195 169 194 170 196 165 169 181 152 173 183 153 166 158 152 179 170 154 179 150 162 161 160 161 137 151 139 180 153 158 152 146 149 141 184 168 179 185 173 139 147 144 147 143 162 141 149 148 134 161 166 142 144 141 148 147 140 160 160 142 160 148 145 146 142 137 134 137 155 146 139 150 132 142 139 137 129 133 141 132 134 113 118 118 133 101 110 122 128 88 124 107 116 103 120 94 129 110 84 121 96 101 95 111 115 101 111 93 108 90 117 115 137 89 110 100 100 115 102 89 116 106 92 100 106 107 96 98 121 96 98 112 102 113 93 76 91 74 78 83 96 69 77 86 87 80 91 62 77 68 84 78 75 85 75 70 83 64 68 78 74 45 56 60 72 45 63 44 55 50 65 51 67 55 47 40 50 49 55 44 53 46 55 56 46 31 49 36 45 42 50 29 45 33 62 38 56 36 37 26 37 32 45 30 31 27 42 27 37 27 37 25 35 17 32 29 26 30 37 25 30 27 31 14 27 20 28 19 31 19 28 25 30 23 17 24 17 21 21 20 20 11 19 13 9 18 18 13 15 8 15 13 13 12 11 9 16 12 17 6 10 4 10 7 11 5 10 10 13 8 6 7 5 6 10 2 12 3 7 13 9 6 9 4 4 5 7 7 5 4 4 3 11 2 8 3 5 6 2 5 5 3 3 4 4 1 4 6 5 4 7 4 6 1 9 3 3 5 8 5 6 8 7 2 2 4 6 11 8 2 5 3 6 2 2 6 2 5 5 2 8 1 5 2 5 2 2 0 2 4 2 1 2 0 2 7 6 3 4 3 1 3 4 0 2 3 2 3 1 2 2 2 1 2 2 5 3 5 1 2 0 0 4 3 4 0 1 1 1 2 2 2 6 2 1 0 2 1 1 0 0 1 1 2 0 0 0 2 2 0 0 0 0 0 0 1 0 0 2 0 0 0 0 0 1 1 2 1 0 1 0 1 0 1 1 0 2 0 0 0 0 0 0 0 0 0 0 0 0 0 0 0 0 0 0 1 0 0 0 1 1 0 0 0 0 1 0 0 1 1 1 0 0 0 0 0 0 0 0 0 0 0 0 0 0 0 0 1 0 0 0 0 0 0 0 0 0 0 0 0 0 0 0 0 0 0 0 0 0 0 0 0 0 0 0 0 0 0 0 0 0 0 0 0 0 0 0 0 0 0 0 0 0 0 0 0 0 0 0 0 0 0 0 0 0 0 0 0 0 0 0 0 0 0 0 0 0 0 0 0 0 1 1 0 0 0 0 0 0 0 0 0 0 0 0 0 0 1 0 0 0 0 0 0 1 0 0 0 0 0 0 0 1 0 0 0 0 0 0 0 0 0 0 0 0 0 0 0 0 0 0 0 0 0 0 0 0 0 0 0 0 0 0 0 0 0 0 0 0 0 0 0 0 0 0 0 0 0 0 0 0 0 1 0 0 0 0 0 0 0 0 0 0 0 0 0 0 0 0 0 0 0 1 0 0 0 0 0 0 0 0 0 0 0 0 0 0 0 0 0 0 0 0 0 0 0 0 0 0 0 0 0 0 0 0 0 0 0 0 0 0 0 0 0 0 ];
Traffic[0]class1Average hops = 1 (206074 samples)
traffic_manager/hop_stats_freq = [ 0 206074 0 0 0 0 0 0 0 0 0 0 0 0 0 0 0 0 0 0 ];
=======Traffic[1]class0 ======
Traffic[1]class0Overall average latency = 10.7635 (2 samples)
Traffic[1]class0Overall average accepted rate = 0.0692716 (2 samples)
Traffic[1]class0Overall min accepted rate = 0 (2 samples)
traffic_manager/latency_stat_0_freq = [ 0 78032 11056 7175 8433 26585 8671 6077 8497 9462 5057 3562 3186 2926 2709 1806 3527 1687 1369 1127 906 1248 710 585 514 399 579 282 230 205 206 214 112 96 96 58 87 44 46 29 35 50 22 21 16 15 15 14 21 5 7 14 2 6 4 8 5 2 1 2 2 0 4 0 2 3 1 0 4 1 1 0 0 0 0 0 0 0 0 0 0 0 0 0 0 0 0 0 0 0 0 0 0 0 0 0 0 0 0 0 0 0 0 0 0 0 0 0 0 0 0 0 0 0 0 0 0 0 0 0 0 0 0 0 0 0 0 0 0 0 0 0 0 0 0 0 0 0 0 0 0 0 0 0 0 0 0 0 0 0 0 0 0 0 0 0 0 0 0 0 0 0 0 0 0 0 0 0 0 0 0 0 0 0 0 0 0 0 0 0 0 0 0 0 0 0 0 0 0 0 0 0 0 0 0 0 0 0 0 0 0 0 0 0 0 0 0 0 0 0 0 0 0 0 0 0 0 0 0 0 0 0 0 0 0 0 0 0 0 0 0 0 0 0 0 0 0 0 0 0 0 0 0 0 0 0 0 0 0 0 0 0 0 0 0 0 0 0 0 0 0 0 0 0 0 0 0 0 0 0 0 0 0 0 0 0 0 0 0 0 0 0 0 0 0 0 0 0 0 0 0 0 0 0 0 0 0 0 0 0 0 0 0 0 0 0 0 0 0 0 0 0 0 0 0 0 0 0 0 0 0 0 0 0 0 0 0 0 0 0 0 0 0 0 0 0 0 0 0 0 0 0 0 0 0 0 0 0 0 0 0 0 0 0 0 0 0 0 0 0 0 0 0 0 0 0 0 0 0 0 0 0 0 0 0 0 0 0 0 0 0 0 0 0 0 0 0 0 0 0 0 0 0 0 0 0 0 0 0 0 0 0 0 0 0 0 0 0 0 0 0 0 0 0 0 0 0 0 0 0 0 0 0 0 0 0 0 0 0 0 0 0 0 0 0 0 0 0 0 0 0 0 0 0 0 0 0 0 0 0 0 0 0 0 0 0 0 0 0 0 0 0 0 0 0 0 0 0 0 0 0 0 0 0 0 0 0 0 0 0 0 0 0 0 0 0 0 0 0 0 0 0 0 0 0 0 0 0 0 0 0 0 0 0 0 0 0 0 0 0 0 0 0 0 0 0 0 0 0 0 0 0 0 0 0 0 0 0 0 0 0 0 0 0 0 0 0 0 0 0 0 0 0 0 0 0 0 0 0 0 0 0 0 0 0 0 0 0 0 0 0 0 0 0 0 0 0 0 0 0 0 0 0 0 0 0 0 0 0 0 0 0 0 0 0 0 0 0 0 0 0 0 0 0 0 0 0 0 0 0 0 0 0 0 0 0 0 0 0 0 0 0 0 0 0 0 0 0 0 0 0 0 0 0 0 0 0 0 0 0 0 0 0 0 0 0 0 0 0 0 0 0 0 0 0 0 0 0 0 0 0 0 0 0 0 0 0 0 0 0 0 0 0 0 0 0 0 0 0 0 0 0 0 0 0 0 0 0 0 0 0 0 0 0 0 0 0 0 0 0 0 0 0 0 0 0 0 0 0 0 0 0 0 0 0 0 0 0 0 0 0 0 0 0 0 0 0 0 0 0 0 0 0 0 0 0 0 0 0 0 0 0 0 0 0 0 0 0 0 0 0 0 0 0 0 0 0 0 0 0 0 0 0 0 0 0 0 0 0 0 0 0 0 0 0 0 0 0 0 0 0 0 0 0 0 0 0 0 0 0 0 0 0 0 0 0 0 0 0 0 0 0 0 0 0 0 0 0 0 0 0 0 0 0 0 0 0 0 0 0 0 0 0 0 0 0 0 0 0 0 0 0 0 0 0 0 0 0 0 0 0 0 0 0 0 0 0 0 0 0 0 0 0 0 0 0 0 0 0 0 0 0 0 0 0 0 0 0 0 0 0 0 0 0 0 0 0 0 0 0 0 0 0 0 0 0 0 0 0 0 0 0 0 0 0 0 0 0 0 0 0 0 0 0 0 0 0 0 0 0 0 0 0 0 0 0 0 0 0 0 0 0 0 0 0 0 0 0 0 0 0 0 0 0 0 0 0 0 0 0 0 0 0 0 0 0 0 0 0 0 0 0 0 0 0 0 0 0 0 0 0 0 0 0 0 0 0 0 0 0 0 0 0 0 0 0 0 0 0 0 0 0 0 0 0 0 0 0 0 0 0 0 0 0 0 0 0 0 0 0 0 0 0 0 0 0 0 0 0 0 ];
Traffic[1]class1Average hops = 1 (206074 samples)
traffic_manager/hop_stats_freq = [ 0 206074 0 0 0 0 0 0 0 0 0 0 0 0 0 0 0 0 0 0 ];
----------------------------END-of-Interconnect-DETAILS-------------------------

gpgpu_simulation_time = 0 days, 0 hrs, 1 min, 6 sec (66 sec)
gpgpu_simulation_rate = 324159 (inst/sec)
gpgpu_simulation_rate = 1879 (cycle/sec)

kernel '_Z17histo_main_kernelP6uchar4jjjjjPjS1_S1_' transfer to GPU hardware scheduler
kernel_name = _Z17histo_main_kernelP6uchar4jjjjjPjS1_S1_ 
kernel_launch_uid = 3 
gpu_sim_cycle = 448110
gpu_sim_insn = 157206464
gpu_ipc =     350.8211
gpu_tot_sim_cycle = 572137
gpu_tot_sim_insn = 178600998
gpu_tot_ipc =     312.1647
gpu_tot_issued_cta = 0
gpu_stall_dramfull = 620428
gpu_stall_icnt2sh    = 1791687
gpu_total_sim_rate=455614
Cache L1D_000:	Size = 16384 B (32 Set x 4-way x 128 byte line)
		Access = 134616, Miss = 33974 (0.252), PendingHit = 99648 (0.74)
Cache L1D_001:	Size = 16384 B (32 Set x 4-way x 128 byte line)
		Access = 134890, Miss = 32253 (0.239), PendingHit = 99185 (0.735)
Cache L1D_002:	Size = 16384 B (32 Set x 4-way x 128 byte line)
		Access = 134480, Miss = 31706 (0.236), PendingHit = 101553 (0.755)
Cache L1D_003:	Size = 16384 B (32 Set x 4-way x 128 byte line)
		Access = 134956, Miss = 34460 (0.255), PendingHit = 99617 (0.738)
Cache L1D_004:	Size = 16384 B (32 Set x 4-way x 128 byte line)
		Access = 135364, Miss = 34843 (0.257), PendingHit = 99639 (0.736)
Cache L1D_005:	Size = 16384 B (32 Set x 4-way x 128 byte line)
		Access = 132782, Miss = 32718 (0.246), PendingHit = 99263 (0.748)
Cache L1D_006:	Size = 16384 B (32 Set x 4-way x 128 byte line)
		Access = 134016, Miss = 31039 (0.232), PendingHit = 99539 (0.743)
Cache L1D_007:	Size = 16384 B (32 Set x 4-way x 128 byte line)
		Access = 132272, Miss = 32483 (0.246), PendingHit = 99339 (0.751)
Cache L1D_008:	Size = 16384 B (32 Set x 4-way x 128 byte line)
		Access = 134954, Miss = 34526 (0.256), PendingHit = 99492 (0.737)
Cache L1D_009:	Size = 16384 B (32 Set x 4-way x 128 byte line)
		Access = 134518, Miss = 34468 (0.256), PendingHit = 99391 (0.739)
Cache L1D_010:	Size = 16384 B (32 Set x 4-way x 128 byte line)
		Access = 134642, Miss = 34414 (0.256), PendingHit = 99493 (0.739)
Cache L1D_011:	Size = 16384 B (32 Set x 4-way x 128 byte line)
		Access = 132410, Miss = 32463 (0.245), PendingHit = 99379 (0.751)
Cache L1D_012:	Size = 16384 B (32 Set x 4-way x 128 byte line)
		Access = 133434, Miss = 33008 (0.247), PendingHit = 99715 (0.747)
Cache L1D_013:	Size = 16384 B (32 Set x 4-way x 128 byte line)
		Access = 132344, Miss = 32281 (0.244), PendingHit = 99393 (0.751)
total_dl1_misses=464636
total_dl1_accesses=1875678
total_dl1_miss_rate= 0.247716
Shader 0 dynamic_warp_id issue ditsribution:
dynamic_warp_id:
0, 1, 2, 3, 4, 5, 6, 7, 8, 9, 10, 11, 12, 13, 14, 15, 16, 17, 18, 19, 20, 21, 22, 23, 24, 25, 26, 27, 28, 29, 30, 31, 32, 33, 34, 35, 36, 37, 38, 39, 40, 41, 42, 43, 44, 45, 46, 47, 48, 49, 50, 51, 52, 53, 54, 55, 56, 57, 58, 59, 60, 61, 62, 63, 64, 65, 66, 67, 68, 69, 70, 71, 72, 73, 74, 75, 76, 77, 78, 79, 80, 81, 82, 83, 84, 85, 86, 87, 88, 89, 90, 91, 92, 93, 94, 95, 96, 97, 98, 99, 100, 101, 102, 103, 104, 105, 106, 107, 108, 109, 110, 111, 112, 113, 114, 115, 116, 117, 118, 119, 120, 121, 122, 123, 124, 125, 126, 127, 128, 129, 130, 131, 132, 133, 134, 135, 136, 137, 138, 139, 140, 141, 142, 143, 144, 145, 146, 147, 148, 149, 150, 151, 152, 153, 154, 155, 156, 157, 158, 159, 160, 161, 162, 163, 164, 165, 166, 167, 168, 169, 170, 171, 172, 173, 174, 175, 176, 177, 178, 179, 180, 181, 182, 183, 184, 185, 186, 187, 188, 189, 190, 191, 192, 193, 194, 195, 196, 197, 198, 199, 200, 201, 202, 203, 204, 205, 206, 207, 208, 209, 210, 211, 212, 213, 214, 215, 216, 217, 218, 219, 220, 221, 222, 223, 224, 225, 226, 227, 228, 229, 230, 231, 232, 233, 234, 235, 236, 237, 238, 239, 240, 241, 242, 243, 244, 245, 246, 247, 248, 249, 250, 251, 252, 253, 254, 255, 256, 257, 258, 259, 260, 261, 262, 263, 264, 265, 266, 267, 268, 269, 270, 271, 272, 273, 274, 275, 276, 277, 278, 279, 280, 281, 282, 283, 284, 285, 286, 287, 288, 289, 290, 291, 292, 293, 294, 295, 296, 297, 298, 299, 300, 301, 302, 303, 304, 305, 306, 307, 308, 309, 310, 311, 312, 313, 314, 315, 316, 317, 318, 319, 320, 321, 322, 323, 324, 325, 326, 327, 328, 329, 330, 331, 332, 333, 334, 335, 336, 337, 338, 339, 340, 341, 342, 343, 344, 345, 346, 347, 348, 349, 350, 351, 352, 353, 354, 355, 356, 357, 358, 359, 360, 361, 362, 363, 364, 365, 366, 367, 368, 369, 370, 371, 372, 373, 374, 375, 376, 377, 378, 379, 380, 381, 382, 383, 384, 385, 386, 387, 388, 389, 390, 391, 392, 393, 394, 395, 396, 397, 398, 399, 
distro:
269, 201, 188, 188, 175, 175, 175, 175, 162, 162, 162, 162, 162, 162, 162, 162, 269, 201, 188, 188, 175, 175, 175, 175, 162, 162, 162, 162, 162, 162, 162, 162, 269, 201, 188, 188, 175, 175, 175, 175, 162, 162, 162, 162, 162, 162, 162, 162, 269, 201, 188, 188, 175, 175, 175, 175, 162, 162, 162, 162, 162, 162, 162, 162, 269, 201, 188, 188, 175, 175, 175, 175, 162, 162, 162, 162, 162, 162, 162, 162, 269, 201, 188, 188, 175, 175, 175, 175, 162, 162, 162, 162, 162, 162, 162, 162, 507, 507, 507, 507, 507, 507, 507, 507, 507, 507, 507, 507, 507, 507, 507, 507, 507, 507, 507, 507, 507, 507, 507, 507, 507, 507, 507, 507, 507, 507, 507, 507, 507, 507, 507, 507, 507, 507, 507, 507, 507, 507, 507, 507, 507, 507, 507, 507, 507, 507, 507, 507, 507, 507, 507, 507, 507, 507, 507, 507, 507, 507, 507, 507, 507, 507, 507, 507, 507, 507, 507, 507, 507, 507, 507, 507, 507, 507, 507, 507, 2791, 2791, 2791, 2791, 2791, 2791, 2791, 2791, 2791, 2791, 2791, 2791, 2791, 2791, 2791, 2791, 1339, 1339, 1339, 1339, 1339, 1339, 1339, 1339, 1339, 1339, 1339, 1339, 1339, 1339, 1339, 1339, 1339, 1339, 1339, 1339, 1353, 1339, 1339, 1339, 1339, 1339, 1339, 1339, 1339, 1339, 1339, 1339, 1331, 1331, 1331, 1331, 1331, 1331, 1331, 1345, 1331, 1331, 1331, 1331, 1331, 1331, 1331, 1331, 3229, 3215, 3159, 3187, 3215, 3187, 3229, 3187, 3187, 3257, 3201, 3285, 3117, 3243, 3299, 3215, 3151, 3249, 3165, 3207, 3179, 3193, 3221, 3277, 3207, 3249, 3207, 3067, 3179, 3151, 3179, 3221, 3369, 3369, 3347, 3347, 3347, 3347, 3347, 3347, 3347, 3347, 3347, 3347, 3347, 3347, 3347, 3347, 3347, 3347, 3347, 3347, 3347, 3347, 3347, 3347, 3347, 3347, 3347, 3347, 3347, 3347, 3347, 3347, 1493, 1549, 1507, 1493, 1563, 1605, 1563, 1535, 1535, 1535, 1493, 1535, 1507, 1549, 1521, 1605, 1429, 1597, 1513, 1527, 1541, 1471, 1555, 1597, 1611, 1611, 1597, 1527, 1611, 1513, 1499, 1541, 1331, 1331, 1331, 1331, 1331, 1331, 1345, 1331, 1331, 1331, 1331, 1345, 1345, 1331, 1331, 1331, 1339, 1339, 1339, 1339, 1339, 1339, 1339, 1339, 1339, 1339, 1339, 1339, 1339, 1339, 1339, 1339, 1331, 1331, 1331, 1331, 1331, 1331, 1331, 1331, 1331, 1331, 1331, 1331, 1331, 1331, 1331, 1331, 1339, 1339, 1339, 1339, 1339, 1339, 1339, 1339, 1339, 1339, 1339, 1339, 1339, 1339, 1339, 1339, 
gpgpu_n_tot_thrd_icount = 225359360
gpgpu_n_tot_w_icount = 7042480
gpgpu_n_icache_hits = 4035118
gpgpu_n_icache_misses = 18964
gpgpu_n_l1dcache_read_hits = 16396
gpgpu_n_l1dcache_read_misses = 1859282
gpgpu_n_l1dcache_write_accesses = 154440
gpgpu_n_l1dcache_wirte_misses = 154440
gpgpu_n_tcache_hits = 0
gpgpu_n_tcache_misses = 0
gpgpu_n_ccache_hits = 592688
gpgpu_n_ccache_misses = 448
gpgpu_n_stall_shd_mem = 4070523
gpgpu_n_mem_read_local = 0
gpgpu_n_mem_write_local = 0
gpgpu_n_mem_read_global = 665468
gpgpu_n_mem_write_global = 154440
gpgpu_n_mem_texture = 0
gpgpu_n_mem_const = 14
gpgpu_n_load_insn  = 33768768
gpgpu_n_store_insn = 2071680
gpgpu_n_shmem_insn = 6867968
gpgpu_n_tex_insn = 0
gpgpu_n_const_mem_insn = 0
gpgpu_n_param_mem_insn = 37863916
gpgpu_n_shmem_bkconflict = 0
gpgpu_n_cache_bkconflict = 0
gpgpu_n_intrawarp_mshr_merge = 0
gpgpu_n_cmem_portconflict = 1813
gpgpu_stall_shd_mem[c_mem][bk_conf] = 1813
gpgpu_stall_shd_mem[c_mem][mshr_rc] = 0
gpgpu_stall_shd_mem[c_mem][icnt_rc] = 0
gpgpu_stall_shd_mem[t_mem][mshr_rc] = 0
gpgpu_stall_shd_mem[t_mem][icnt_rc] = 0
gpgpu_stall_shd_mem[s_mem][bk_conf] = 95112
gpgpu_stall_shd_mem[gl_mem][bk_conf] = 0
gpgpu_stall_shd_mem[gl_mem][coal_stall] = 3973598
gpgpu_stall_shd_mem[g_mem_ld][mshr_rc] = 0
gpgpu_stall_shd_mem[g_mem_ld][icnt_rc] = 0
gpgpu_stall_shd_mem[g_mem_ld][wb_icnt_rc] = 0
gpgpu_stall_shd_mem[g_mem_ld][wb_rsrv_fail] = 0
gpgpu_stall_shd_mem[g_mem_st][mshr_rc] = 0
gpgpu_stall_shd_mem[g_mem_st][icnt_rc] = 0
gpgpu_stall_shd_mem[g_mem_st][wb_icnt_rc] = 0
gpgpu_stall_shd_mem[g_mem_st][wb_rsrv_fail] = 0
gpgpu_stall_shd_mem[l_mem_ld][mshr_rc] = 0
gpgpu_stall_shd_mem[l_mem_ld][icnt_rc] = 0
gpgpu_stall_shd_mem[l_mem_ld][wb_icnt_rc] = 0
gpgpu_stall_shd_mem[l_mem_ld][wb_rsrv_fail] = 0
gpgpu_stall_shd_mem[l_mem_st][mshr_rc] = 0
gpgpu_stall_shd_mem[l_mem_st][icnt_rc] = 0
gpgpu_stall_shd_mem[l_mem_ld][wb_icnt_rc] = 0
gpgpu_stall_shd_mem[l_mem_ld][wb_rsrv_fail] = 0
gpu_reg_bank_conflict_stalls = 0
Warp Occupancy Distribution:
Stall:4072569	W0_Idle:986855	W0_Scoreboard:3296806	W1:234474	W2:210470	W3:181146	W4:138692	W5:82446	W6:50806	W7:38790	W8:43856	W9:57666	W10:76300	W11:92400	W12:104846	W13:108710	W14:108192	W15:93310	W16:76042	W17:54698	W18:68543	W19:20720	W20:10248	W21:4886	W22:1792	W23:658	W24:196	W25:56	W26:0	W27:0	W28:0	W29:0	W30:0	W31:0	W32:5182537
maxmrqlatency = 271 
maxdqlatency = 0 
maxmflatency = 797 
averagemflatency = 228 
max_icnt2mem_latency = 2385 
max_icnt2sh_latency = 124026 
mrq_lat_table:304877 	16637 	25591 	61228 	66201 	62612 	27890 	3064 	3 	0 	0 	0 	0 	0 	0 	0 	0 	0 	0 	0 	0 	0 	0 	0 	0 	0 	0 	0 	0 	0 	0 	0 	
dq_lat_table:0 	0 	0 	0 	0 	0 	0 	0 	0 	0 	0 	0 	0 	0 	0 	0 	0 	0 	0 	0 	0 	0 	0 	0 	0 	0 	0 	0 	0 	0 	0 	0 	
mf_lat_table:0 	0 	0 	0 	0 	0 	134045 	390314 	285650 	9913 	0 	0 	0 	0 	0 	0 	0 	0 	0 	0 	0 	0 	0 	0 	0 	0 	0 	0 	0 	0 	0 	0 	
icnt2mem_lat_table:330 	246431 	30634 	84480 	132973 	124575 	105961 	83804 	11762 	104 	55 	1 	0 	0 	0 	0 	0 	0 	0 	0 	0 	0 	0 	0 	
icnt2sh_lat_table:110 	144177 	165223 	345005 	10948 	19 	0 	0 	0 	0 	0 	0 	0 	2465 	26703 	45908 	79364 	0 	0 	0 	0 	0 	0 	0 	
mf_lat_pw_table:0 	0 	0 	0 	0 	0 	90 	627 	419 	0 	0 	0 	0 	0 	0 	0 	0 	0 	0 	0 	0 	0 	0 	0 	0 	0 	0 	0 	0 	0 	0 	0 	
maximum concurrent accesses to same row:
dram[0]:        32        32        32        32       110        86        32        32        32        47        32        32        35        32        32        32 
dram[1]:        32        32        32        32       103        85        32        32        32        36        32        32        36        32        32        38 
dram[2]:        32        32        32        32       102        89        32        34        34        52        32        32        32        32        32        33 
dram[3]:        32        36        32        32       101        86        32        32        32        48        32        32        32        32        32        32 
dram[4]:        41        33        32        32        68        83        32        32        32        66        32        32        39        32        32        42 
maximum service time to same row:
dram[0]:     24080     24096     23968     21023     20812     20882     18613     20912     20686     20919     20825     20626     20810     21001     21142     24163 
dram[1]:     24066     24109     23941     21088     20742     20814     18510     20845     20625     20726     20840     20728     20731     21096     21110     24185 
dram[2]:     23939     24194     24087     21002     21010     20926     18564     20814     20749     20813     20935     20860     20847     20907     21073     24012 
dram[3]:     24114     24188     24051     21123     20970     20927     18537     20923     20761     20839     20810     20812     20840     20953     21071     24118 
dram[4]:     24060     24116     24319     21042     20915     20932     18562     20786     20677     20803     20809     20835     20962     20890     21001     24045 
average row accesses per activate:
dram[0]:  3.469760  3.502583  3.492128  3.518766  3.659804  3.567568  3.473005  3.598303  3.519203  3.480520  3.416824  3.582723  3.363552  3.541483  3.575758  3.460949 
dram[1]:  3.537566  3.599894  3.443722  3.450428  3.655851  3.593673  3.556424  3.554081  3.553317  3.545499  3.468886  3.523055  3.412318  3.461576  3.622977  3.598834 
dram[2]:  3.546419  3.582851  3.517665  3.538461  3.727273  3.601485  3.694967  3.615655  3.642461  3.625687  3.449206  3.612998  3.487992  3.601691  3.517730  3.562140 
dram[3]:  3.537116  3.581751  3.513818  3.514593  3.722946  3.670385  3.685946  3.585207  3.651538  3.528293  3.500000  3.553243  3.409582  3.515078  3.468297  3.497175 
dram[4]:  3.543813  3.551652  3.529261  3.533676  3.678377  3.661794  3.665327  3.674809  3.559230  3.534146  3.450024  3.519157  3.428639  3.491067  3.540265  3.569921 
average row locality = 568103/160079 = 3.548892
number of total memory accesses made:
dram[0]:         0         0         0         0         0         0         0         0         0         0         0         0         0         0         0         0 
dram[1]:         0         0         0         0         0         0         0         0         0         0         0         0         0         0         0         0 
dram[2]:         0         0         0         0         0         0         0         0         0         0         0         0         0         0         0         0 
dram[3]:         0         0         0         0         0         0         0         0         0         0         0         0         0         0         0         0 
dram[4]:         0         0         0         0         0         0         0         0         0         0         0         0         0         0         0         0 
total accesses: 0
min_bank_accesses = 0!
min_chip_accesses = 0!
number of total read accesses:
dram[0]:      5012      5080      5127      5112      5500      5402      5417      5389      5428      5401      5424      5463      5430      5375      5189      5083 
dram[1]:      5033      5084      5144      5130      5480      5412      5414      5410      5417      5404      5389      5451      5424      5367      5179      5083 
dram[2]:      5034      5102      5140      5116      5499      5409      5405      5384      5406      5405      5380      5464      5416      5401      5183      5096 
dram[3]:      5015      5089      5119      5125      5478      5395      5396      5367      5420      5394      5409      5455      5426      5402      5185      5101 
dram[4]:      5024      5082      5129      5126      5474      5407      5417      5397      5409      5408      5421      5457      5430      5396      5180      5076 
total reads: 424102
bank skew: 5500/5012 = 1.10
chip skew: 84840/84776 = 1.00
number of total write accesses:
dram[0]:      1643      1701      1749      1732      1966      1858      1852      1822      1811      1835      1806      1878      1842      1839      1773      1697 
dram[1]:      1653      1709      1740      1726      1956      1858      1866      1819      1814      1843      1802      1884      1834      1840      1759      1708 
dram[2]:      1651      1709      1730      1738      1963      1866      1863      1822      1817      1850      1784      1874      1846      1842      1761      1697 
dram[3]:      1656      1702      1747      1739      1953      1843      1869      1807      1821      1839      1794      1886      1833      1825      1762      1708 
dram[4]:      1649      1691      1746      1747      1960      1858      1877      1824      1802      1837      1793      1891      1825      1834      1766      1689 
total reads: 144001
bank skew: 1966/1643 = 1.20
chip skew: 28813/28784 = 1.00
average mf latency per bank:
[...]
maxmrqlatency = 469 
maxdqlatency = 0 
maxmflatency = 1002 
averagemflatency = 234 
max_icnt2mem_latency = 2385 
max_icnt2sh_latency = 1228665 
mrq_lat_table:667895 	37354 	57816 	141762 	167229 	164413 	74779 	8354 	127 	0 	0 	0 	0 	0 	0 	0 	0 	0 	0 	0 	0 	0 	0 	0 	0 	0 	0 	0 	0 	0 	0 	0 	
dq_lat_table:0 	0 	0 	0 	0 	0 	0 	0 	0 	0 	0 	0 	0 	0 	0 	0 	0 	0 	0 	0 	0 	0 	0 	0 	0 	0 	0 	0 	0 	0 	0 	0 	
mf_lat_table:0 	0 	0 	0 	0 	0 	268092 	849175 	667720 	25754 	0 	0 	0 	0 	0 	0 	0 	0 	0 	0 	0 	0 	0 	0 	0 	0 	0 	0 	0 	0 	0 	0 	
icnt2mem_lat_table:671 	501181 	64250 	173507 	283348 	295465 	257039 	207480 	30014 	236 	111 	1 	0 	0 	0 	0 	0 	0 	0 	0 	0 	0 	0 	0 	
icnt2sh_lat_table:225 	307122 	341272 	699128 	22957 	85 	0 	0 	0 	0 	0 	0 	0 	2465 	26703 	45908 	79364 	0 	0 	219976 	65536 	0 	0 	0 	
mf_lat_pw_table:0 	0 	0 	0 	0 	0 	180 	1281 	977 	0 	0 	0 	0 	0 	0 	0 	0 	0 	0 	0 	0 	0 	0 	0 	0 	0 	0 	0 	0 	0 	0 	0 	
maximum concurrent accesses to same row:
dram[0]:        70        35        40        80       110        86        65        70        80        50        45        70        80        50        45        50 
dram[1]:        55        35        36        80       103        85        60        80        80        45        50        75        55        37        45        45 
dram[2]:        70        40        35        80       102        89        60        80        80        55        45        65        70        35        35        50 
dram[3]:        75        36        55        80       101        86        60        80        80        54        50        80        70        40        32        35 
dram[4]:        60        40        35        80        75        83        65        80        75        66        45        78        65        35        41        70 
maximum service time to same row:
dram[0]:     24080     24096     23968     21023     20812     20882     18641     20912     20686     20919     20825     20626     20810     21001     21142     24163 
dram[1]:     24067     24109     23941     21090     20819     20904     18622     20845     20625     20726     20840     20728     20731     21096     21110     24185 
dram[2]:     23939     24194     24087     21006     21010     20926     18681     20814     20749     20813     20935     20860     20847     20907     21073     24012 
dram[3]:     24114     24188     24051     21123     20970     20927     18630     20923     20761     20839     20810     20812     20840     20953     21071     24118 
dram[4]:     24060     24116     24319     21042     20915     20932     18650     20786     20677     20803     20809     20835     20962     20890     21001     24045 
average row accesses per activate:
dram[0]:  3.595692  3.561392  3.541713  3.533039  3.573255  3.535555  3.503736  3.603882  3.598397  3.557161  3.521166  3.585884  3.424714  3.505589  3.524433  3.537810 
dram[1]:  3.630137  3.582962  3.497926  3.512590  3.644511  3.493291  3.569133  3.625722  3.639446  3.578172  3.557186  3.577986  3.424323  3.458394  3.548671  3.589552 
dram[2]:  3.615891  3.698369  3.542395  3.589726  3.683027  3.547715  3.668260  3.675305  3.758499  3.653939  3.603109  3.629662  3.532221  3.560051  3.536762  3.620808 
dram[3]:  3.624429  3.666287  3.559235  3.594128  3.627430  3.609978  3.632191  3.641436  3.801026  3.590470  3.578115  3.550822  3.499058  3.490760  3.470361  3.578758 
dram[4]:  3.690559  3.621133  3.563183  3.618469  3.661572  3.607019  3.650356  3.707365  3.667241  3.627141  3.544304  3.576401  3.503985  3.472981  3.548735  3.588529 
average row locality = 1319729/368341 = 3.582900
number of total memory accesses made:
dram[0]:         0         0         0         0         0         0         0         0         0         0         0         0         0         0         0         0 
dram[1]:         0         0         0         0         0         0         0         0         0         0         0         0         0         0         0         0 
dram[2]:         0         0         0         0         0         0         0         0         0         0         0         0         0         0         0         0 
dram[3]:         0         0         0         0         0         0         0         0         0         0         0         0         0         0         0         0 
dram[4]:         0         0         0         0         0         0         0         0         0         0         0         0         0         0         0         0 
total accesses: 0
min_bank_accesses = 0!
min_chip_accesses = 0!
number of total read accesses:
dram[0]:     11004     11123     11104     11133     11848     11658     11726     11681     11777     11614     11597     11757     11701     11608     11246     11057 
dram[1]:     11048     11142     11127     11162     11814     11687     11708     11704     11758     11618     11555     11719     11683     11587     11249     11052 
dram[2]:     11057     11157     11123     11137     11835     11687     11704     11668     11727     11617     11527     11744     11671     11635     11262     11082 
dram[3]:     11025     11153     11107     11160     11798     11656     11690     11643     11747     11610     11589     11739     11697     11649     11261     11095 
dram[4]:     11039     11111     11105     11162     11798     11671     11722     11687     11738     11623     11609     11729     11697     11656     11241     11050 
total reads: 918137
bank skew: 11848/11004 = 1.08
chip skew: 183638/183613 = 1.00
number of total write accesses:
dram[0]:      4853      4946      4901      4854      5200      4998      5155      5214      5283      5126      4956      5111      5039      5012      4910      4803 
dram[1]:      4852      4924      4897      4880      5184      4976      5174      5239      5311      5135      4929      5119      5014      4996      4901      4821 
dram[2]:      4871      4942      4878      4866      5199      5005      5181      5209      5299      5129      4932      5094      5047      4994      4901      4788 
dram[3]:      4850      4942      4906      4877      5182      4986      5167      5195      5293      5118      4924      5099      5025      4974      4897      4809 
dram[4]:      4871      4927      4883      4904      5210      4979      5212      5226      5278      5109      4911      5123      5010      4990      4888      4779 
total reads: 401592
bank skew: 5311/4779 = 1.11
chip skew: 80361/80244 = 1.00
average mf latency per bank:
dram[0]:        309       310       314       342       334       341       341       335       329       318       312       312       315       313       312       316
dram[1]:        304       305       309       338       334       333       333       330       325       312       305       310       311       310       308       311
dram[2]:        310       312       313       342       335       339       339       335       329       317       310       314       316       313       313       315
dram[3]:        310       311       315       345       337       342       340       335       330       317       309       316       316       313       315       316
dram[4]:        307       310       314       343       335       338       338       334       330       317       310       312       315       313       314       318
maximum mf latency per bank:
dram[0]:        758       786       807       703       777       768       851       854       722       766       738       746       832       695       753       801
dram[1]:        716       752       779       763       807       834       735      1002       744       759       752       721       873       764       681       793
dram[2]:        733       785       774       822       789       792       736       795       847       675       703       743       858       743       722       774
dram[3]:        813       765       743       788       753       758       743       750       802       671       703       822       795       720       793       669
dram[4]:        735       765       826       792       746       756       749       813       754       797       715       778       707       822       744       767

Number of Memory Banks Accessed per Memory Operation per Warp (from 0):
0	0	0	0	0	0	0	0	0	0	0	0	0	0	0	0	0	0	0	0	0	0	0	0	0	0	0	0	0	0	0	0	0	0	0	0	0	0	0	0	0	0	0	0	0	0	0	0	0	0	0	0	0	0	0	0	0	0	0	0	0	0	0	0	0	0	0	0	0	0	0	0	0	0	0	0	0	0	0	0	
Average # of Memory Banks Accessed per Memory Operation per Warp=-nan

position of mrq chosen
0	0	0	0	0	0	0	0	0	0	0	0	0	0	0	0	

average position of mrq chosen = -nan
gpgpu_l2_write_miss = 0
gpgpu_l2_write_access = 0
gpgpu_l2_read_miss = 0
gpgpu_l2_read_access = 0
Cache L2_bank_000:
MSHR contents

DRAM[0]: 16 bks, busW=4 BL=8 CL=12, tRRD=2 tCCD=6, tRCD=12 tRAS=28 tRP=12 tRC=40
n_cmd=2764486 n_nop=2157209 n_act=74503 n_pre=74487 n_req=263995 n_rd=367268 n_write=91019 bw_util=0.3316
n_activity=1884183 dram_eff=0.4865
bk0: 22008a 2481592i bk1: 22246a 2482518i bk2: 22208a 2480168i bk3: 22266a 2481933i bk4: 23696a 2492313i bk5: 23316a 2483924i bk6: 23452a 2486553i bk7: 23362a 2479609i bk8: 23554a 2473473i bk9: 23228a 2460189i bk10: 23194a 2456468i bk11: 23514a 2432827i bk12: 23402a 2404711i bk13: 23216a 2350505i bk14: 22492a 2217152i bk15: 22114a 1826666i 
dram_util_bins: 0 0 0 0 0 0 0 0 0 0
dram_eff_bins: 0 0 0 0 0 0 0 0 0 0
mrqq: max=16 avg=3.36809
Cache L2_bank_001:
MSHR contents

DRAM[1]: 16 bks, busW=4 BL=8 CL=12, tRRD=2 tCCD=6, tRCD=12 tRAS=28 tRP=12 tRC=40
n_cmd=2764486 n_nop=2157785 n_act=74206 n_pre=74190 n_req=263965 n_rd=367226 n_write=91079 bw_util=0.3316
n_activity=1907848 dram_eff=0.4804
bk0: 22096a 2482133i bk1: 22284a 2481295i bk2: 22254a 2480025i bk3: 22324a 2482738i bk4: 23628a 2491499i bk5: 23374a 2485997i bk6: 23416a 2487106i bk7: 23408a 2481681i bk8: 23516a 2474569i bk9: 23236a 2459820i bk10: 23110a 2457413i bk11: 23438a 2432879i bk12: 23366a 2408126i bk13: 23174a 2353689i bk14: 22498a 2217696i bk15: 22104a 1827023i 
dram_util_bins: 0 0 0 0 0 0 0 0 0 0
dram_eff_bins: 0 0 0 0 0 0 0 0 0 0
mrqq: max=16 avg=3.33659
Cache L2_bank_002:
MSHR contents

DRAM[2]: 16 bks, busW=4 BL=8 CL=12, tRRD=2 tCCD=6, tRCD=12 tRAS=28 tRP=12 tRC=40
n_cmd=2764486 n_nop=2160352 n_act=72936 n_pre=72920 n_req=263968 n_rd=367266 n_write=91012 bw_util=0.3315
n_activity=1881159 dram_eff=0.4872
bk0: 22114a 2482749i bk1: 22314a 2481504i bk2: 22246a 2481296i bk3: 22274a 2482447i bk4: 23670a 2491491i bk5: 23374a 2485376i bk6: 23408a 2487404i bk7: 23336a 2480783i bk8: 23454a 2475252i bk9: 23234a 2462632i bk10: 23054a 2459015i bk11: 23488a 2433832i bk12: 23342a 2406941i bk13: 23270a 2350418i bk14: 22524a 2220409i bk15: 22164a 1838828i 
dram_util_bins: 0 0 0 0 0 0 0 0 0 0
dram_eff_bins: 0 0 0 0 0 0 0 0 0 0
mrqq: max=16 avg=3.35583
Cache L2_bank_003:
MSHR contents

DRAM[3]: 16 bks, busW=4 BL=8 CL=12, tRRD=2 tCCD=6, tRCD=12 tRAS=28 tRP=12 tRC=40
n_cmd=2764486 n_nop=2159376 n_act=73427 n_pre=73411 n_req=263863 n_rd=367238 n_write=91034 bw_util=0.3315
n_activity=1881292 dram_eff=0.4872
bk0: 22050a 2484668i bk1: 22306a 2482245i bk2: 22214a 2481296i bk3: 22320a 2482274i bk4: 23596a 2490510i bk5: 23312a 2483239i bk6: 23380a 2485451i bk7: 23286a 2480463i bk8: 23494a 2474784i bk9: 23220a 2459229i bk10: 23178a 2456738i bk11: 23478a 2433731i bk12: 23394a 2406609i bk13: 23298a 2354936i bk14: 22522a 2222166i bk15: 22190a 1836823i 
dram_util_bins: 0 0 0 0 0 0 0 0 0 0
dram_eff_bins: 0 0 0 0 0 0 0 0 0 0
mrqq: max=16 avg=3.37523
Cache L2_bank_004:
MSHR contents

DRAM[4]: 16 bks, busW=4 BL=8 CL=12, tRRD=2 tCCD=6, tRCD=12 tRAS=28 tRP=12 tRC=40
n_cmd=2764486 n_nop=2159650 n_act=73272 n_pre=73256 n_req=263938 n_rd=367276 n_write=91032 bw_util=0.3316
n_activity=1887199 dram_eff=0.4857
bk0: 22078a 2483161i bk1: 22222a 2483484i bk2: 22210a 2481151i bk3: 22324a 2483607i bk4: 23596a 2492977i bk5: 23342a 2487624i bk6: 23444a 2486371i bk7: 23374a 2482729i bk8: 23476a 2474444i bk9: 23246a 2462936i bk10: 23218a 2457530i bk11: 23458a 2431609i bk12: 23394a 2405910i bk13: 23312a 2352129i bk14: 22482a 2219689i bk15: 22100a 1833655i 
dram_util_bins: 0 0 0 0 0 0 0 0 0 0
dram_eff_bins: 0 0 0 0 0 0 0 0 0 0
mrqq: max=16 avg=3.36194
Cache L2_bank_000:	Size = 131072 B (64 Set x 16-way x 128 byte line)
		Access = 362612, Miss = 183634 (0.506), PendingHit = 65764 (0.181)
Cache L2_bank_001:	Size = 131072 B (64 Set x 16-way x 128 byte line)
		Access = 362584, Miss = 183613 (0.506), PendingHit = 65871 (0.182)
Cache L2_bank_002:	Size = 131072 B (64 Set x 16-way x 128 byte line)
		Access = 362439, Miss = 183633 (0.507), PendingHit = 65652 (0.181)
Cache L2_bank_003:	Size = 131072 B (64 Set x 16-way x 128 byte line)
		Access = 362930, Miss = 183619 (0.506), PendingHit = 65321 (0.18)
Cache L2_bank_004:	Size = 131072 B (64 Set x 16-way x 128 byte line)
		Access = 362738, Miss = 183638 (0.506), PendingHit = 65469 (0.18)
L2 Cache Total Miss Rate = 0.506

icnt_total_pkts_mem_to_simt=7305911
icnt_total_pkts_simt_to_mem=2333127

LD_mem_lat_dist  0 0 0 0 0 0 0 0 0 0 0 0 0 0 0 0 0 0 0 0 0 0 0 0 0 0 0
ST_mem_lat_dist  0 0 0 0 0 0 0 0 0 0 0 0 0 0 0 0 0 0 0 0 0 0 0 0 0 0 0
Traffic 0 Stat
%=================================
% Average latency = 90.9901
% Accepted packets = 0 at node 0 (avg = 0.0982759)
lat(15) = 90.9901;
thru(15,:) = [ 0 0 0 0 0 0 0 0 0 0 0 0 0 0 0.451919 0.452002 0.451966 0.452158 0.452301 0 0 0 0 ];
% latency change    = 0.848136
% throughput change = 0.528212
Traffic 1 Stat
%=================================
% Average latency = 5.97103
% Accepted packets = 0 at node 14 (avg = 0.0815333)
lat(16) = 5.97103;
thru(16,:) = [ 0.171705 0.0922344 0.13197 0.13197 0.178583 0.175144 0.132089 0.095673 0.095673 0.0922344 0.135408 0.0922344 0.175144 0.175204 0 0 0 0 0 0 0 0 0 ];
% latency change    = 14.2386
% throughput change = 0.205347
----------------------------Interconnect-DETAILS---------------------------------=======Traffic[0]class0 ======
Traffic[0]class0Overall average latency = 76.7105 (8 samples)
Traffic[0]class0Overall average accepted rate = 0.0622876 (8 samples)
Traffic[0]class0Overall min accepted rate = 0 (8 samples)
traffic_manager/latency_stat_0_freq = [ 0 623 888 291 306 296 292 181 205 186 194 176 192 206 291 379 1521 1637 930 962 949 858 946 977 960 984 956 950 997 949 939 937 970 900 948 890 900 901 876 877 921 859 838 851 881 784 843 810 797 729 756 751 699 690 727 649 670 612 693 570 609 597 601 620 559 568 569 589 523 565 527 490 520 461 504 462 453 403 447 414 405 374 363 388 380 338 371 375 345 348 321 290 342 310 274 309 283 296 283 254 271 242 240 264 222 228 207 207 201 209 187 205 182 185 178 166 169 186 161 176 153 144 153 153 140 128 151 140 149 123 135 137 130 146 136 139 132 133 127 131 104 130 116 119 106 107 110 115 107 103 85 119 111 110 116 112 103 110 102 102 85 70 94 90 98 103 82 104 99 89 102 73 77 94 97 99 106 98 91 93 106 85 87 84 73 97 101 115 96 83 80 79 86 81 94 84 74 76 88 85 77 72 85 85 72 69 65 73 83 94 79 69 57 90 92 93 60 73 76 75 64 69 74 57 70 74 78 72 78 85 80 70 82 55 77 72 76 73 67 56 70 83 59 77 81 77 59 71 60 84 76 67 70 58 71 61 65 63 45 70 62 68 61 64 52 70 61 68 65 58 65 64 70 56 51 64 56 70 68 42 62 41 59 51 51 42 44 50 44 46 51 43 46 51 34 41 37 38 38 31 43 45 43 43 36 54 25 45 35 32 39 43 46 45 39 41 28 30 29 43 38 33 47 35 40 44 23 37 33 20 36 35 23 32 19 39 17 24 21 26 26 27 40 27 33 33 32 33 22 30 25 24 32 25 25 22 24 23 23 15 30 20 25 23 17 16 24 15 11 18 21 18 33 21 22 18 21 17 24 18 20 21 21 25 8 17 20 17 15 24 11 20 20 20 18 21 8 8 14 13 13 10 13 11 12 15 19 11 19 17 20 19 16 10 17 9 14 15 10 11 14 12 13 20 6 9 10 10 9 13 3 9 8 11 7 15 13 9 10 8 7 10 3 5 9 8 6 8 11 6 3 9 5 10 6 7 7 10 8 9 6 7 11 8 7 16 6 12 7 12 2 4 8 12 13 9 11 11 13 5 7 11 6 8 8 15 4 7 3 6 11 12 8 12 7 9 7 3 6 5 7 12 4 6 3 2 5 10 8 9 8 10 4 6 8 3 6 4 4 12 8 7 2 2 3 8 6 3 6 3 3 4 5 1 2 2 3 2 3 6 1 1 2 4 5 3 3 1 3 2 4 1 6 0 1 4 2 1 4 2 4 3 3 4 0 1 0 3 0 1 1 1 1 3 1 1 4 2 1 3 0 0 0 1 0 2 1 2 1 3 2 0 1 1 1 0 0 0 0 1 1 2 0 1 1 1 0 1 1 2 1 2 0 2 1 0 0 1 0 1 0 1 0 1 2 2 0 0 0 0 0 0 0 1 1 1 0 0 1 1 0 1 1 1 0 0 1 0 1 1 0 2 1 1 0 0 0 0 1 3 0 0 0 1 0 0 0 0 1 0 1 0 0 0 2 0 0 0 1 0 0 0 0 1 1 0 0 0 0 0 0 0 0 0 0 0 1 0 0 0 0 0 0 1 0 0 0 0 0 0 0 0 0 0 0 0 0 0 0 0 0 0 1 0 0 0 0 0 0 0 0 0 0 0 0 0 0 0 0 0 0 0 0 0 0 0 0 0 0 0 0 0 0 1 0 0 0 0 0 0 0 0 0 0 0 0 0 0 0 0 0 0 0 0 0 0 0 0 0 0 0 0 0 0 0 0 0 0 0 0 0 0 0 0 0 0 0 0 0 0 0 0 0 0 0 0 0 0 0 0 0 0 0 0 0 0 0 0 0 0 0 0 0 0 0 0 0 0 0 0 0 0 0 0 0 0 0 0 0 0 0 0 0 0 0 0 0 0 0 0 0 0 0 0 0 0 0 0 0 0 0 0 0 0 0 0 0 0 0 0 0 0 0 0 0 0 0 0 0 0 0 0 0 0 0 0 0 0 0 0 0 0 0 0 0 0 0 0 0 0 0 0 0 0 0 0 0 0 0 0 0 0 0 0 0 0 0 0 0 0 0 0 0 0 0 0 0 0 0 0 0 0 0 0 0 0 0 0 0 0 0 0 0 0 0 0 0 0 0 0 0 0 0 0 0 0 0 0 0 0 0 0 0 0 0 0 0 0 0 0 0 0 0 0 0 0 0 0 0 0 0 0 0 0 0 0 0 0 0 0 0 0 0 0 0 0 0 0 0 0 ];
Traffic[0]class1Average hops = 1 (1813303 samples)
traffic_manager/hop_stats_freq = [ 0 1813303 0 0 0 0 0 0 0 0 0 0 0 0 0 0 0 0 0 0 ];
=======Traffic[1]class0 ======
Traffic[1]class0Overall average latency = 10.3187 (8 samples)
Traffic[1]class0Overall average accepted rate = 0.0922481 (8 samples)
Traffic[1]class0Overall min accepted rate = 0 (8 samples)
traffic_manager/latency_stat_0_freq = [ 0 28583 4056 2837 3518 11696 4039 3186 3799 5266 2846 1920 1603 1444 1398 1021 1626 878 623 575 531 476 379 238 194 173 162 150 94 76 72 53 48 53 50 24 25 17 10 5 9 5 10 7 4 3 7 2 9 5 4 2 7 3 1 0 1 1 4 0 2 1 2 1 1 3 2 0 0 1 0 0 0 0 0 0 0 0 0 0 0 0 0 0 0 0 0 0 0 0 0 0 0 0 0 0 0 0 0 0 0 0 0 0 0 0 0 0 0 0 0 0 0 0 0 0 0 0 0 0 0 0 0 0 0 0 0 0 0 0 0 0 0 0 0 0 0 0 0 0 0 0 0 0 0 0 0 0 0 0 0 0 0 0 0 0 0 0 0 0 0 0 0 0 0 0 0 0 0 0 0 0 0 0 0 0 0 0 0 0 0 0 0 0 0 0 0 0 0 0 0 0 0 0 0 0 0 0 0 0 0 0 0 0 0 0 0 0 0 0 0 0 0 0 0 0 0 0 0 0 0 0 0 0 0 0 0 0 0 0 0 0 0 0 0 0 0 0 0 0 0 0 0 0 0 0 0 0 0 0 0 0 0 0 0 0 0 0 0 0 0 0 0 0 0 0 0 0 0 0 0 0 0 0 0 0 0 0 0 0 0 0 0 0 0 0 0 0 0 0 0 0 0 0 0 0 0 0 0 0 0 0 0 0 0 0 0 0 0 0 0 0 0 0 0 0 0 0 0 0 0 0 0 0 0 0 0 0 0 0 0 0 0 0 0 0 0 0 0 0 0 0 0 0 0 0 0 0 0 0 0 0 0 0 0 0 0 0 0 0 0 0 0 0 0 0 0 0 0 0 0 0 0 0 0 0 0 0 0 0 0 0 0 0 0 0 0 0 0 0 0 0 0 0 0 0 0 0 0 0 0 0 0 0 0 0 0 0 0 0 0 0 0 0 0 0 0 0 0 0 0 0 0 0 0 0 0 0 0 0 0 0 0 0 0 0 0 0 0 0 0 0 0 0 0 0 0 0 0 0 0 0 0 0 0 0 0 0 0 0 0 0 0 0 0 0 0 0 0 0 0 0 0 0 0 0 0 0 0 0 0 0 0 0 0 0 0 0 0 0 0 0 0 0 0 0 0 0 0 0 0 0 0 0 0 0 0 0 0 0 0 0 0 0 0 0 0 0 0 0 0 0 0 0 0 0 0 0 0 0 0 0 0 0 0 0 0 0 0 0 0 0 0 0 0 0 0 0 0 0 0 0 0 0 0 0 0 0 0 0 0 0 0 0 0 0 0 0 0 0 0 0 0 0 0 0 0 0 0 0 0 0 0 0 0 0 0 0 0 0 0 0 0 0 0 0 0 0 0 0 0 0 0 0 0 0 0 0 0 0 0 0 0 0 0 0 0 0 0 0 0 0 0 0 0 0 0 0 0 0 0 0 0 0 0 0 0 0 0 0 0 0 0 0 0 0 0 0 0 0 0 0 0 0 0 0 0 0 0 0 0 0 0 0 0 0 0 0 0 0 0 0 0 0 0 0 0 0 0 0 0 0 0 0 0 0 0 0 0 0 0 0 0 0 0 0 0 0 0 0 0 0 0 0 0 0 0 0 0 0 0 0 0 0 0 0 0 0 0 0 0 0 0 0 0 0 0 0 0 0 0 0 0 0 0 0 0 0 0 0 0 0 0 0 0 0 0 0 0 0 0 0 0 0 0 0 0 0 0 0 0 0 0 0 0 0 0 0 0 0 0 0 0 0 0 0 0 0 0 0 0 0 0 0 0 0 0 0 0 0 0 0 0 0 0 0 0 0 0 0 0 0 0 0 0 0 0 0 0 0 0 0 0 0 0 0 0 0 0 0 0 0 0 0 0 0 0 0 0 0 0 0 0 0 0 0 0 0 0 0 0 0 0 0 0 0 0 0 0 0 0 0 0 0 0 0 0 0 0 0 0 0 0 0 0 0 0 0 0 0 0 0 0 0 0 0 0 0 0 0 0 0 0 0 0 0 0 0 0 0 0 0 0 0 0 0 0 0 0 0 0 0 0 0 0 0 0 0 0 0 0 0 0 0 0 0 0 0 0 0 0 0 0 0 0 0 0 0 0 0 0 0 0 0 0 0 0 0 0 0 0 0 0 0 0 0 0 0 0 0 0 0 0 0 0 0 0 0 0 0 0 0 0 0 0 0 0 0 0 0 0 0 0 0 0 0 0 0 0 0 0 0 0 0 0 0 0 0 0 0 0 0 0 0 0 0 0 0 0 0 ];
Traffic[1]class1Average hops = 1 (1813303 samples)
traffic_manager/hop_stats_freq = [ 0 1813303 0 0 0 0 0 0 0 0 0 0 0 0 0 0 0 0 0 0 ];
----------------------------END-of-Interconnect-DETAILS-------------------------

gpgpu_simulation_time = 0 days, 0 hrs, 13 min, 52 sec (832 sec)
gpgpu_simulation_rate = 445568 (inst/sec)
gpgpu_simulation_rate = 1476 (cycle/sec)

