

        *** GPGPU-Sim Simulator Version 3.2.1  [build 15629] ***


               1=functional simulation only, 0=detailed performance simulator)
GPGPU-Sim: Configuration options:

-network_mode                           1 # Interconnection network mode
-inter_config_file   config_fermi_islip.icnt # Interconnection network config file
-gpgpu_ptx_use_cuobjdump                    1 # Use cuobjdump to extract ptx and sass from binaries
-gpgpu_experimental_lib_support                    0 # Try to extract code from cuda libraries [Broken because of unknown cudaGetExportTable]
-gpgpu_ptx_convert_to_ptxplus                    0 # Convert SASS (native ISA) to ptxplus and run ptxplus
-gpgpu_ptx_force_max_capability                   20 # Force maximum compute capability
-gpgpu_ptx_inst_debug_to_file                    0 # Dump executed instructions' debug information to file
-gpgpu_ptx_inst_debug_file       inst_debug.txt # Executed instructions' debug output file
-gpgpu_ptx_inst_debug_thread_uid                    1 # Thread UID for executed instructions' debug output
-gpgpu_simd_model                       1 # 1 = post-dominator
-gpgpu_shader_core_pipeline              1536:32 # shader core pipeline config, i.e., {<nthread>:<warpsize>}
-gpgpu_tex_cache:l1  4:128:24,L:R:m:N,F:128:4,128:2 # per-shader L1 texture cache  (READ-ONLY) config  {<nsets>:<bsize>:<assoc>,<rep>:<wr>:<alloc>:<wr_alloc>,<mshr>:<N>:<merge>,<mq>:<rf>}
-gpgpu_const_cache:l1 64:64:2,L:R:f:N,A:2:32,4 # per-shader L1 constant memory cache  (READ-ONLY) config  {<nsets>:<bsize>:<assoc>,<rep>:<wr>:<alloc>:<wr_alloc>,<mshr>:<N>:<merge>,<mq>} 
-gpgpu_cache:il1     4:128:4,L:R:f:N,A:2:32,4 # shader L1 instruction cache config  {<nsets>:<bsize>:<assoc>,<rep>:<wr>:<alloc>:<wr_alloc>,<mshr>:<N>:<merge>,<mq>} 
-gpgpu_cache:dl1     32:128:4,L:L:m:N,A:32:8,8 # per-shader L1 data cache config  {<nsets>:<bsize>:<assoc>,<rep>:<wr>:<alloc>:<wr_alloc>,<mshr>:<N>:<merge>,<mq> | none}
-gpgpu_perfect_mem                      0 # enable perfect memory mode (no cache miss)
-n_regfile_gating_group                    4 # group of lanes that should be read/written together)
-gpgpu_clock_gated_reg_file                    0 # enable clock gated reg file for power calculations
-gpgpu_clock_gated_lanes                    0 # enable clock gated lanes for power calculations
-gpgpu_shader_registers                32768 # Number of registers per shader core. Limits number of concurrent CTAs. (default 8192)
-gpgpu_shader_cta                       8 # Maximum number of concurrent CTAs in shader (default 8)
-gpgpu_n_clusters                      14 # number of processing clusters
-gpgpu_n_cores_per_cluster                    1 # number of simd cores per cluster
-gpgpu_n_cluster_ejection_buffer_size                    8 # number of packets in ejection buffer
-gpgpu_n_ldst_response_buffer_size                    2 # number of response packets in ld/st unit ejection buffer
-gpgpu_shmem_size                   16384 # Size of shared memory per shader core (default 16kB)
-gpgpu_shmem_num_banks                   32 # Number of banks in the shared memory in each shader core (default 16)
-gpgpu_shmem_limited_broadcast                    0 # Limit shared memory to do one broadcast per cycle (default on)
-gpgpu_shmem_warp_parts                    1 # Number of portions a warp is divided into for shared memory bank conflict check 
-gpgpu_warpdistro_shader                   -1 # Specify which shader core to collect the warp size distribution from
-gpgpu_warp_issue_shader                    0 # Specify which shader core to collect the warp issue distribution from
-gpgpu_local_mem_map                    1 # Mapping from local memory space address to simulated GPU physical address space (default = enabled)
-gpgpu_num_reg_banks                   16 # Number of register banks (default = 8)
-gpgpu_reg_bank_use_warp_id                    0 # Use warp ID in mapping registers to banks (default = off)
-gpgpu_operand_collector_num_units_sp                    6 # number of collector units (default = 4)
-gpgpu_operand_collector_num_units_sfu                    8 # number of collector units (default = 4)
-gpgpu_operand_collector_num_units_mem                    2 # number of collector units (default = 2)
-gpgpu_operand_collector_num_units_gen                    0 # number of collector units (default = 0)
-gpgpu_operand_collector_num_in_ports_sp                    2 # number of collector unit in ports (default = 1)
-gpgpu_operand_collector_num_in_ports_sfu                    1 # number of collector unit in ports (default = 1)
-gpgpu_operand_collector_num_in_ports_mem                    1 # number of collector unit in ports (default = 1)
-gpgpu_operand_collector_num_in_ports_gen                    0 # number of collector unit in ports (default = 0)
-gpgpu_operand_collector_num_out_ports_sp                    2 # number of collector unit in ports (default = 1)
-gpgpu_operand_collector_num_out_ports_sfu                    1 # number of collector unit in ports (default = 1)
-gpgpu_operand_collector_num_out_ports_mem                    1 # number of collector unit in ports (default = 1)
-gpgpu_operand_collector_num_out_ports_gen                    0 # number of collector unit in ports (default = 0)
-gpgpu_coalesce_arch                   13 # Coalescing arch (default = 13, anything else is off for now)
-gpgpu_num_sched_per_core                    2 # Number of warp schedulers per core
-gpgpu_max_insn_issue_per_warp                    1 # Max number of instructions that can be issued per warp in one cycle by scheduler
-gpgpu_simt_core_sim_order                    1 # Select the simulation order of cores in a cluster (0=Fix, 1=Round-Robin)
-gpgpu_pipeline_widths        2,1,1,2,1,1,2 # Pipeline widths ID_OC_SP,ID_OC_SFU,ID_OC_MEM,OC_EX_SP,OC_EX_SFU,OC_EX_MEM,EX_WB
-gpgpu_num_sp_units                     2 # Number of SP units (default=1)
-gpgpu_num_sfu_units                    1 # Number of SF units (default=1)
-gpgpu_num_mem_units                    1 # Number if ldst units (default=1) WARNING: not hooked up to anything
-gpgpu_scheduler                      lrr # Scheduler configuration: < lrr | gto | two_level_active > If two_level_active:<num_active_warps>:<inner_prioritization>:<outer_prioritization>For complete list of prioritization values see shader.h enum scheduler_prioritization_typeDefault: gto
-gpgpu_dram_scheduler                    1 # 0 = fifo, 1 = FR-FCFS (defaul)
-gpgpu_dram_partition_queues              8:8:8:8 # i2$:$2d:d2$:$2i
-l2_ideal                               0 # Use a ideal L2 cache that always hit
-gpgpu_cache:dl2     64:128:16,L:B:m:W,A:32:4,4 # unified banked L2 data cache config  {<nsets>:<bsize>:<assoc>,<rep>:<wr>:<alloc>:<wr_alloc>,<mshr>:<N>:<merge>,<mq>}
-gpgpu_cache:dl2_texture_only                    0 # L2 cache used for texture only
-gpgpu_n_mem                            5 # number of memory modules (e.g. memory controllers) in gpu
-gpgpu_n_mem_per_ctrlr                    2 # number of memory chips per memory controller
-gpgpu_memlatency_stat                   14 # track and display latency statistics 0x2 enables MC, 0x4 enables queue logs
-gpgpu_frfcfs_dram_sched_queue_size                   16 # 0 = unlimited (default); # entries per chip
-gpgpu_dram_return_queue_size                    0 # 0 = unlimited (default); # entries per chip
-gpgpu_dram_buswidth                    4 # default = 4 bytes (8 bytes per cycle at DDR)
-gpgpu_dram_burst_length                    8 # Burst length of each DRAM request (default = 4 data bus cycle)
-dram_data_command_freq_ratio                    4 # Frequency ratio between DRAM data bus and command bus (default = 2 times, i.e. DDR)
-gpgpu_dram_timing_opt nbk=16:CCD=2:RRD=6:RCD=12:RAS=28:RP=12:RC=40: CL=12:WL=4:CDLR=5:WR=12:nbkgrp=4:CCDL=3:RTPL=2 # DRAM timing parameters = {nbk:tCCD:tRRD:tRCD:tRAS:tRP:tRC:CL:WL:tCDLR:tWR:nbkgrp:tCCDL:tRTPL}
-rop_latency                          100 # ROP queue latency (default 85)
-dram_latency                          83 # DRAM latency (default 30)
-gpgpu_mem_addr_mapping dramid@8;00000000.00000000.00000000.00000000.0000RRRR.RRRRRRRR.BBBBCCCC.CCSSSSSS # mapping memory address to dram model {dramid@<start bit>;<memory address map>}
-gpgpu_mem_addr_test                    0 # run sweep test to check address mapping for aliased address
-gpgpu_mem_address_mask                    1 # 0 = old addressing mask, 1 = new addressing mask, 2 = new add. mask + flipped bank sel and chip sel bits
-gpuwattch_xml_file         gpuwattch.xml # GPUWattch XML file
-power_simulation_enabled                    1 # Turn on power simulator (1=On, 0=Off)
-power_per_cycle_dump                    0 # Dump detailed power output each cycle
-power_trace_enabled                    1 # produce a file for the power trace (1=On, 0=Off)
-power_trace_zlevel                     6 # Compression level of the power trace output log (0=no comp, 9=highest)
-steady_power_levels_enabled                    0 # produce a file for the steady power levels (1=On, 0=Off)
-steady_state_definition                  8:4 # allowed deviation:number of samples
-gpgpu_max_cycle                        0 # terminates gpu simulation early (0 = no limit)
-gpgpu_max_insn                         0 # terminates gpu simulation early (0 = no limit)
-gpgpu_max_cta                          0 # terminates gpu simulation early (0 = no limit)
-gpgpu_runtime_stat                   500 # display runtime statistics such as dram utilization {<freq>:<flag>}
-gpgpu_flush_l1_cache                    0 # Flush L1 cache at the end of each kernel call
-gpgpu_flush_l2_cache                    0 # Flush L2 cache at the end of each kernel call
-gpgpu_deadlock_detect                    1 # Stop the simulation at deadlock (1=on (default), 0=off)
-gpgpu_ptx_instruction_classification                    0 # if enabled will classify ptx instruction types per kernel (Max 255 kernels now)
-gpgpu_ptx_sim_mode                     0 # Select between Performance (default) or Functional simulation (1)
-gpgpu_clock_domains 500.0:1000.0:500.0:900.0 # Clock Domain Frequencies in MhZ {<Core Clock>:<ICNT Clock>:<L2 Clock>:<DRAM Clock>}
-gpgpu_max_concurrent_kernel                    8 # maximum kernels that can run concurrently on GPU
-gpgpu_cflog_interval                    0 # Interval between each snapshot in control flow logger
-visualizer_enabled                     0 # Turn on visualizer output (1=On, 0=Off)
-visualizer_outputfile                 NULL # Specifies the output log file for visualizer
-visualizer_zlevel                      6 # Compression level of the visualizer output log (0=no comp, 9=highest)
-trace_enabled                          0 # Turn on traces
-trace_components                    none # comma seperated list of traces to enable. Complete list found in trace_streams.tup. Default none
-trace_sampling_core                    0 # The core which is printed using CORE_DPRINTF. Default 0
-enable_ptx_file_line_stats                    1 # Turn on PTX source line statistic profiling. (1 = On)
-ptx_line_stats_filename gpgpu_inst_stats.txt # Output file for PTX source line statistics.
-save_embedded_ptx                      0 # saves ptx files embedded in binary as <n>.ptx
-keep                                   0 # keep intermediate files created by GPGPU-Sim when interfacing with external programs
-gpgpu_ptx_save_converted_ptxplus                    0 # Saved converted ptxplus to a file
-ptx_opcode_latency_int         4,13,4,5,145 # Opcode latencies for integers <ADD,MAX,MUL,MAD,DIV>Default 1,1,19,25,145
-ptx_opcode_latency_fp          4,13,4,5,39 # Opcode latencies for single precision floating points <ADD,MAX,MUL,MAD,DIV>Default 1,1,1,1,30
-ptx_opcode_latency_dp         8,19,8,8,330 # Opcode latencies for double precision floating points <ADD,MAX,MUL,MAD,DIV>Default 8,8,8,8,335
-ptx_opcode_initiation_int            1,2,2,1,8 # Opcode initiation intervals for integers <ADD,MAX,MUL,MAD,DIV>Default 1,1,4,4,32
-ptx_opcode_initiation_fp            1,2,1,1,4 # Opcode initiation intervals for single precision floating points <ADD,MAX,MUL,MAD,DIV>Default3c75dc34161bc8b6a3c1600901c19524  /tmp/tmp.i7avrO5vMV/histo__SIZE1_1
 1,1,1,1,5
-ptx_opcode_initiation_dp         8,16,8,8,130 # Opcode initiation intervals for double precision floating points <ADD,MAX,MUL,MAD,DIV>Default 8,8,8,8,130
DRAM Timing Options:
nbk                                    16 # number of banks
CCD                                     2 # column to column delay
RRD                                     6 # minimal delay between activation of rows in different banks
RCD                                    12 # row to column delay
RAS                                    28 # time needed to activate row
RP                                     12 # time needed to precharge (deactivate) row
RC                                     40 # row cycle time
CDLR                                    5 # switching from write to read (changes tWTR)
WR                                     12 # last data-in to row precharge
CL                                     12 # CAS latency
WL                                      4 # Write latency
nbkgrp                                  4 # number of bank groups
CCDL                                    3 # column to column delay between accesses to different bank groups
RTPL                                    2 # read to precharge delay between accesses to different bank groups
addr_dec_mask[CHIP]  = 0000000000000000 	high:64 low:0
addr_dec_mask[BK]    = 000000000000f000 	high:16 low:12
addr_dec_mask[ROW]   = 000000000fff0000 	high:28 low:16
addr_dec_mask[COL]   = 0000000000000fff 	high:12 low:0
addr_dec_mask[BURST] = 000000000000003f 	high:6 low:0
*** Initializing Memory Statistics ***
self exe links to: /tmp/tmp.i7avrO5vMV/histo__SIZE1_1
Running md5sum using "md5sum /tmp/tmp.i7avrO5vMV/histo__SIZE1_1 "
Running cuobjdump using "$CUDA_INSTALL_PATH/bin/cuobjdump -ptx -elf -sass /tmp/tmp.i7avrO5vMV/histo__SIZE1_1 > _cuobjdump_complete_output_7TEnTJ"
Parsing file _cuobjdump_complete_output_7TEnTJ
######### cuobjdump parser ########
## Adding new section PTX
Adding ptx filename: _cuobjdump_1.ptx
Adding arch: sm_13
Adding identifier: benchmarks/histo/histo.cu
## Adding new section ELF
Adding arch: sm_13
Adding identifier: benchmarks/histo/histo.cu
Done parsing!!!
Adding _cuobjdump_1.ptx with cubin handle 1
Running: cat _ptx_NhrnMs | sed 's/.version 1.5/.version 1.4/' | sed 's/, texmode_independent//' | sed 's/\(\.extern \.const\[1\] .b8 \w\+\)\[\]/\1\[1\]/' | sed 's/const\[.\]/const\[0\]/g' > _ptx2_6yPoFb

kernel '_Z20histo_prescan_kernelPjiS_' transfer to GPU hardware scheduler
kernel_name = _Z20histo_prescan_kernelPjiS_ 
kernel_launch_uid = 1 
gpu_sim_cycle = 14342
gpu_sim_insn = 5500864
gpu_ipc =     383.5493
gpu_tot_sim_cycle = 14342
gpu_tot_sim_insn = 5500864
gpu_tot_ipc =     383.5493
gpu_tot_issued_cta = 0
gpu_stall_dramfull = 10632
gpu_stall_icnt2sh    = 21001
gpu_total_sim_rate=611207
Cache L1D_000:	Size = 16384 B (32 Set x 4-way x 128 byte line)
		Access = 1526, Miss = 849 (0.556), PendingHit = 258 (0.169)
Cache L1D_001:	Size = 16384 B (32 Set x 4-way x 128 byte line)
		Access = 1406, Miss = 766 (0.545), PendingHit = 465 (0.331)
Cache L1D_002:	Size = 16384 B (32 Set x 4-way x 128 byte line)
		Access = 1526, Miss = 889 (0.583), PendingHit = 262 (0.172)
Cache L1D_003:	Size = 16384 B (32 Set x 4-way x 128 byte line)
		Access = 1016, Miss = 440 (0.433), PendingHit = 320 (0.315)
Cache L1D_004:	Size = 16384 B (32 Set x 4-way x 128 byte line)
		Access = 1016, Miss = 441 (0.434), PendingHit = 290 (0.285)
Cache L1D_005:	Size = 16384 B (32 Set x 4-way x 128 byte line)
		Access = 1398, Miss = 746 (0.534), PendingHit = 425 (0.304)
Cache L1D_006:	Size = 16384 B (32 Set x 4-way x 128 byte line)
		Access = 1530, Miss = 865 (0.565), PendingHit = 322 (0.21)
Cache L1D_007:	Size = 16384 B (32 Set x 4-way x 128 byte line)
		Access = 1524, Miss = 813 (0.533), PendingHit = 162 (0.106)
Cache L1D_008:	Size = 16384 B (32 Set x 4-way x 128 byte line)
		Access = 762, Miss = 381 (0.5), PendingHit = 177 (0.232)
Cache L1D_009:	Size = 16384 B (32 Set x 4-way x 128 byte line)
		Access = 762, Miss = 466 (0.612), PendingHit = 35 (0.0459)
Cache L1D_010:	Size = 16384 B (32 Set x 4-way x 128 byte line)
		Access = 766, Miss = 408 (0.533), PendingHit = 90 (0.117)
Cache L1D_011:	Size = 16384 B (32 Set x 4-way x 128 byte line)
		Access = 764, Miss = 380 (0.497), PendingHit = 233 (0.305)
Cache L1D_012:	Size = 16384 B (32 Set x 4-way x 128 byte line)
		Access = 1270, Miss = 502 (0.395), PendingHit = 320 (0.252)
Cache L1D_013:	Size = 16384 B (32 Set x 4-way x 128 byte line)
		Access = 762, Miss = 381 (0.5), PendingHit = 141 (0.185)
total_dl1_misses=8327
total_dl1_accesses=16028
total_dl1_miss_rate= 0.519528
Shader 0 dynamic_warp_id issue ditsribution:
dynamic_warp_id:
0, 1, 2, 3, 4, 5, 6, 7, 8, 9, 10, 11, 12, 13, 14, 15, 16, 17, 18, 19, 20, 21, 22, 23, 24, 25, 26, 27, 28, 29, 30, 31, 32, 33, 34, 35, 36, 37, 38, 39, 40, 41, 42, 43, 44, 45, 46, 47, 48, 49, 50, 51, 52, 53, 54, 55, 56, 57, 58, 59, 60, 61, 62, 63, 64, 65, 66, 67, 68, 69, 70, 71, 72, 73, 74, 75, 76, 77, 78, 79, 80, 81, 82, 83, 84, 85, 86, 87, 88, 89, 90, 91, 92, 93, 94, 95, 
distro:
269, 201, 188, 188, 175, 175, 175, 175, 162, 162, 162, 162, 162, 162, 162, 162, 269, 201, 188, 188, 175, 175, 175, 175, 162, 162, 162, 162, 162, 162, 162, 162, 269, 201, 188, 188, 175, 175, 175, 175, 162, 162, 162, 162, 162, 162, 162, 162, 269, 201, 188, 188, 175, 175, 175, 175, 162, 162, 162, 162, 162, 162, 162, 162, 269, 201, 188, 188, 175, 175, 175, 175, 162, 162, 162, 162, 162, 162, 162, 162, 269, 201, 188, 188, 175, 175, 175, 175, 162, 162, 162, 162, 162, 162, 162, 162, 
gpgpu_n_tot_thrd_icount = 5820416
gpgpu_n_tot_w_icount = 181888
gpgpu_n_icache_hits = 104640
gpgpu_n_icache_misses = 3473
gpgpu_n_l1dcache_read_hits = 4201
gpgpu_n_l1dcache_read_misses = 11827
gpgpu_n_l1dcache_write_accesses = 0
gpgpu_n_l1dcache_wirte_misses = 0
gpgpu_n_tcache_hits = 0
gpgpu_n_tcache_misses = 0
gpgpu_n_ccache_hits = 2688
gpgpu_n_ccache_misses = 448
gpgpu_n_stall_shd_mem = 44444
gpgpu_n_mem_read_local = 0
gpgpu_n_mem_write_local = 0
gpgpu_n_mem_read_global = 8455
gpgpu_n_mem_write_global = 0
gpgpu_n_mem_texture = 0
gpgpu_n_mem_const = 14
gpgpu_n_load_insn  = 518144
gpgpu_n_store_insn = 0
gpgpu_n_shmem_insn = 782208
gpgpu_n_tex_insn = 0
gpgpu_n_const_mem_insn = 0
gpgpu_n_param_mem_insn = 196736
gpgpu_n_shmem_bkconflict = 0
gpgpu_n_cache_bkconflict = 0
gpgpu_n_intrawarp_mshr_merge = 0
gpgpu_n_cmem_portconflict = 2359
gpgpu_stall_shd_mem[c_mem][bk_conf] = 2359
gpgpu_stall_shd_mem[c_mem][mshr_rc] = 0
gpgpu_stall_shd_mem[c_mem][icnt_rc] = 0
gpgpu_stall_shd_mem[t_mem][mshr_rc] = 0
gpgpu_stall_shd_mem[t_mem][icnt_rc] = 0
gpgpu_stall_shd_mem[s_mem][bk_conf] = 0
gpgpu_stall_shd_mem[gl_mem][bk_conf] = 0
gpgpu_stall_shd_mem[gl_mem][coal_stall] = 42085
gpgpu_stall_shd_mem[g_mem_ld][mshr_rc] = 0
gpgpu_stall_shd_mem[g_mem_ld][icnt_rc] = 0
gpgpu_stall_shd_mem[g_mem_ld][wb_icnt_rc] = 0
gpgpu_stall_shd_mem[g_mem_ld][wb_rsrv_fail] = 0
gpgpu_stall_shd_mem[g_mem_st][mshr_rc] = 0
gpgpu_stall_shd_mem[g_mem_st][icnt_rc] = 0
gpgpu_stall_shd_mem[g_mem_st][wb_icnt_rc] = 0
gpgpu_stall_shd_mem[g_mem_st][wb_rsrv_fail] = 0
gpgpu_stall_shd_mem[l_mem_ld][mshr_rc] = 0
gpgpu_stall_shd_mem[l_mem_ld][icnt_rc] = 0
gpgpu_stall_shd_mem[l_mem_ld][wb_icnt_rc] = 0
gpgpu_stall_shd_mem[l_mem_ld][wb_rsrv_fail] = 0
gpgpu_stall_shd_mem[l_mem_st][mshr_rc] = 0
gpgpu_stall_shd_mem[l_mem_st][icnt_rc] = 0
gpgpu_stall_shd_mem[l_mem_ld][wb_icnt_rc] = 0
gpgpu_stall_shd_mem[l_mem_ld][wb_rsrv_fail] = 0
gpu_reg_bank_conflict_stalls = 0
Warp Occupancy Distribution:
Stall:69202	W0_Idle:37487	W0_Scoreboard:34701	W1:1472	W2:512	W3:0	W4:512	W5:0	W6:0	W7:1088	W8:512	W9:0	W10:0	W11:0	W12:0	W13:0	W14:0	W15:0	W16:512	W17:0	W18:0	W19:0	W20:0	W21:0	W22:0	W23:0	W24:0	W25:0	W26:0	W27:0	W28:0	W29:0	W30:0	W31:0	W32:177280
maxmrqlatency = 104 
maxdqlatency = 0 
maxmflatency = 562 
averagemflatency = 248 
max_icnt2mem_latency = 352 
max_icnt2sh_latency = 29 
mrq_lat_table:2110 	127 	188 	639 	631 	366 	60 	0 	0 	0 	0 	0 	0 	0 	0 	0 	0 	0 	0 	0 	0 	0 	0 	0 	0 	0 	0 	0 	0 	0 	0 	0 	
dq_lat_table:0 	0 	0 	0 	0 	0 	0 	0 	0 	0 	0 	0 	0 	0 	0 	0 	0 	0 	0 	0 	0 	0 	0 	0 	0 	0 	0 	0 	0 	0 	0 	0 	
mf_lat_table:0 	0 	0 	0 	0 	0 	1724 	3011 	3728 	6 	0 	0 	0 	0 	0 	0 	0 	0 	0 	0 	0 	0 	0 	0 	0 	0 	0 	0 	0 	0 	0 	0 	
icnt2mem_lat_table:193 	4415 	376 	348 	382 	595 	1190 	1105 	19 	0 	0 	0 	0 	0 	0 	0 	0 	0 	0 	0 	0 	0 	0 	0 	
icnt2sh_lat_table:107 	1507 	2440 	4126 	289 	0 	0 	0 	0 	0 	0 	0 	0 	0 	0 	0 	0 	0 	0 	0 	0 	0 	0 	0 	
mf_lat_pw_table:0 	0 	0 	0 	0 	0 	8 	9 	6 	0 	0 	0 	0 	0 	0 	0 	0 	0 	0 	0 	0 	0 	0 	0 	0 	0 	0 	0 	0 	0 	0 	0 	
maximum concurrent accesses to same row:
dram[0]:         7         5         4         4         4         4         4         4         6         4         4         7         4         6         7         4 
dram[1]:         6         6         4         6         4         5         4         3         3         6         4        10         4         6         5         4 
dram[2]:        10         9         5         6         4         4         4         4         4         5         5        10         4         5         4         4 
dram[3]:         7         7         4         5         4         4         4         4         4         4         4        10         4         4         4         3 
dram[4]:         6         6         4         5         4         5         4         4         4         5         4         9         6         4         4         4 
maximum service time to same row:
dram[0]:      3284      6802      1321      1541      7294      6338      1382      8733      5708      1367      8628      5594      1366      6083      6299      1384 
dram[1]:      4043      6830      1367      1473      7306      6201      1379      8732      5755      1369      8646      5601      1364      6116      6108      1381 
dram[2]:      5654      7288      1371      1466      7246      6342      1381      8701      5700      1326      8641      5444      1418      6039      5630      1421 
dram[3]:      5406      6852      1364      4457      7282      6408      1387      8701      5617      1361      8659      5303      1481      5870      5899      1379 
dram[4]:      4133      6744      1363      1382      7325      6265      1379      8716      5843      1366      8611      5404      1369      5812      5808      1377 
average row accesses per activate:
dram[0]:  3.000000  2.064516  2.233333  2.600000  2.250000  2.064516  2.166667  2.375000  1.888889  2.000000  2.666667  2.500000  1.942857  3.000000  2.640000  1.882353 
dram[1]:  3.375000  2.093750  1.914286  2.076923  2.684211  1.914286  2.333333  1.782609  1.969697  1.967742  3.000000  2.200000  1.911765  3.000000  2.310345  1.911765 
dram[2]:  5.200000  2.266667  1.939394  2.076923  2.500000  2.193548  1.888889  2.047619  2.133333  1.967742  3.000000  1.942857  1.823529  3.250000  2.133333  1.888889 
dram[3]:  2.363636  2.233333  1.585366  2.400000  2.428571  1.970588  2.125000  2.045455  1.911765  1.764706  2.142857  2.125000  1.675676  2.333333  1.969697  1.581395 
dram[4]:  3.714286  2.285714  1.914286  2.444444  2.391304  2.000000  1.947368  2.100000  1.837838  2.035714  2.538461  2.096774  2.031250  2.888889  1.942857  1.625000 
average row locality = 4121/1970 = 2.091878
number of total memory accesses made:
dram[0]:         0         0         0         0         0         0         0         0         0         0         0         0         0         0         0         0 
dram[1]:         0         0         0         0         0         0         0         0         0         0         0         0         0         0         0         0 
dram[2]:         0         0         0         0         0         0         0         0         0         0         0         0         0         0         0         0 
dram[3]:         0         0         0         0         0         0         0         0         0         0         0         0         0         0         0         0 
dram[4]:         0         0         0         0         0         0         0         0         0         0         0         0         0         0         0         0 
total accesses: 0
min_bank_accesses = 0!
min_chip_accesses = 0!
number of total read accesses:
dram[0]:        27        64        67        26        54        64        39        38        68        58        32        65        68        24        66        64 
dram[1]:        27        67        67        27        51        67        35        41        65        61        30        66        65        24        67        65 
dram[2]:        26        68        64        27        50        68        34        43        64        61        30        68        62        26        64        68 
dram[3]:        26        67        65        24        51        67        34        45        65        60        30        68        62        28        65        68 
dram[4]:        26        64        67        22        55        64        37        42        68        57        33        65        65        26        68        65 
total reads: 4121
bank skew: 68/22 = 3.09
chip skew: 825/823 = 1.00
number of total write accesses:
dram[0]:         0         0         0         0         0         0         0         0         0         0         0         0         0         0         0         0 
dram[1]:         0         0         0         0         0         0         0         0         0         0         0         0         0         0         0         0 
dram[2]:         0         0         0         0         0         0         0         0         0         0         0         0         0         0         0         0 
dram[3]:         0         0         0         0         0         0         0         0         0         0         0         0         0         0         0         0 
dram[4]:         0         0         0         0         0         0         0         0         0         0         0         0         0         0         0         0 
total reads: 0
min_bank_accesses = 0!
min_chip_accesses = 0!
average mf latency per bank:
dram[0]:        489       382       536       579       371       537       547       352       503       590       328       469       529       326       397       574
dram[1]:        380       380       569       581       375       537       551       358       527       569       335       481       545       345       410       597
dram[2]:        417       372       549       599       390       550       569       340       516       556       354       488       554       333       399       602
dram[3]:        498       406       661      1284       393       614       616       339       613       645       370       562       634       338       429       645
dram[4]:        463       399       693       636       395       607       638       340       607       641       339       547       646       345       430       668
maximum mf latency per bank:
dram[0]:        412       365       499       388       367       435       435       272       445       475       253       466       457       390       409       455
dram[1]:        450       364       446       413       378       432       484       282       428       450       238       421       443       423       411       431
dram[2]:        426       402       494       422       341       447       510       283       422       524       241       421       441       411       408       506
dram[3]:        454       423       530       481       385       511       526       277       469       476       250       500       483       421       451       562
dram[4]:        455       415       495       436       424       485       486       246       467       490       232       477       515       467       438       464

Number of Memory Banks Accessed per Memory Operation per Warp (from 0):
0	0	0	0	0	0	0	0	0	0	0	0	0	0	0	0	0	0	0	0	0	0	0	0	0	0	0	0	0	0	0	0	0	0	0	0	0	0	0	0	0	0	0	0	0	0	0	0	0	0	0	0	0	0	0	0	0	0	0	0	0	0	0	0	0	0	0	0	0	0	0	0	0	0	0	0	0	0	0	0	
Average # of Memory Banks Accessed per Memory Operation per Warp=-nan

position of mrq chosen
0	0	0	0	0	0	0	0	0	0	0	0	0	0	0	0	

average position of mrq chosen = -nan
gpgpu_l2_write_miss = 0
gpgpu_l2_write_access = 0
gpgpu_l2_read_miss = 0
gpgpu_l2_read_access = 0
Cache L2_bank_000:
MSHR contents

DRAM[0]: 16 bks, busW=4 BL=8 CL=12, tRRD=2 tCCD=6, tRCD=12 tRAS=28 tRP=12 tRC=40
n_cmd=25814 n_nop=23432 n_act=375 n_pre=359 n_req=824 n_rd=1648 n_write=0 bw_util=0.1277
n_activity=6503 dram_eff=0.5068
bk0: 54a 25203i bk1: 128a 25020i bk2: 134a 24617i bk3: 52a 25086i bk4: 108a 25210i bk5: 128a 24753i bk6: 78a 24956i bk7: 76a 25212i bk8: 136a 24742i bk9: 116a 24845i bk10: 64a 25182i bk11: 130a 24813i bk12: 136a 24574i bk13: 48a 24983i bk14: 132a 24010i bk15: 128a 21829i 
dram_util_bins: 0 0 0 0 0 0 0 0 0 0
dram_eff_bins: 0 0 0 0 0 0 0 0 0 0
mrqq: max=16 avg=0.555396
Cache L2_bank_001:
MSHR contents

DRAM[1]: 16 bks, busW=4 BL=8 CL=12, tRRD=2 tCCD=6, tRCD=12 tRAS=28 tRP=12 tRC=40
n_cmd=25814 n_nop=23400 n_act=390 n_pre=374 n_req=825 n_rd=1650 n_write=0 bw_util=0.1278
n_activity=6624 dram_eff=0.4982
bk0: 54a 25253i bk1: 134a 25058i bk2: 134a 24568i bk3: 54a 25092i bk4: 102a 25177i bk5: 134a 24650i bk6: 70a 25003i bk7: 82a 25203i bk8: 130a 24722i bk9: 122a 24663i bk10: 60a 25274i bk11: 132a 24792i bk12: 130a 24469i bk13: 48a 25044i bk14: 134a 23987i bk15: 130a 21681i 
dram_util_bins: 0 0 0 0 0 0 0 0 0 0
dram_eff_bins: 0 0 0 0 0 0 0 0 0 0
mrqq: max=16 avg=0.622763
Cache L2_bank_002:
MSHR contents

DRAM[2]: 16 bks, busW=4 BL=8 CL=12, tRRD=2 tCCD=6, tRCD=12 tRAS=28 tRP=12 tRC=40
n_cmd=25814 n_nop=23412 n_act=386 n_pre=370 n_req=823 n_rd=1646 n_write=0 bw_util=0.1275
n_activity=6318 dram_eff=0.5211
bk0: 52a 25280i bk1: 136a 25034i bk2: 128a 24646i bk3: 54a 25189i bk4: 100a 25096i bk5: 136a 24663i bk6: 68a 24985i bk7: 86a 25164i bk8: 128a 24671i bk9: 122a 24700i bk10: 60a 25252i bk11: 136a 24807i bk12: 124a 24371i bk13: 52a 24978i bk14: 128a 24007i bk15: 136a 21883i 
dram_util_bins: 0 0 0 0 0 0 0 0 0 0
dram_eff_bins: 0 0 0 0 0 0 0 0 0 0
mrqq: max=16 avg=0.584838
Cache L2_bank_003:
MSHR contents

DRAM[3]: 16 bks, busW=4 BL=8 CL=12, tRRD=2 tCCD=6, tRCD=12 tRAS=28 tRP=12 tRC=40
n_cmd=25814 n_nop=23332 n_act=424 n_pre=408 n_req=825 n_rd=1650 n_write=0 bw_util=0.1278
n_activity=6538 dram_eff=0.5047
bk0: 52a 25223i bk1: 134a 24968i bk2: 130a 24455i bk3: 48a 25026i bk4: 102a 25113i bk5: 134a 24462i bk6: 68a 24959i bk7: 90a 25258i bk8: 130a 24575i bk9: 120a 24479i bk10: 60a 25217i bk11: 136a 24743i bk12: 124a 24351i bk13: 56a 24907i bk14: 130a 23968i bk15: 136a 21578i 
dram_util_bins: 0 0 0 0 0 0 0 0 0 0
dram_eff_bins: 0 0 0 0 0 0 0 0 0 0
mrqq: max=16 avg=0.620129
Cache L2_bank_004:
MSHR contents

DRAM[4]: 16 bks, busW=4 BL=8 CL=12, tRRD=2 tCCD=6, tRCD=12 tRAS=28 tRP=12 tRC=40
n_cmd=25814 n_nop=23386 n_act=398 n_pre=382 n_req=824 n_rd=1648 n_write=0 bw_util=0.1277
n_activity=6496 dram_eff=0.5074
bk0: 52a 25288i bk1: 128a 25002i bk2: 134a 24633i bk3: 44a 25121i bk4: 110a 25139i bk5: 128a 24601i bk6: 74a 24951i bk7: 84a 25148i bk8: 136a 24567i bk9: 114a 24737i bk10: 66a 25223i bk11: 130a 24736i bk12: 130a 24440i bk13: 52a 24870i bk14: 136a 23977i bk15: 130a 21780i 
dram_util_bins: 0 0 0 0 0 0 0 0 0 0
dram_eff_bins: 0 0 0 0 0 0 0 0 0 0
mrqq: max=16 avg=0.596149
Cache L2_bank_000:	Size = 131072 B (64 Set x 16-way x 128 byte line)
		Access = 1702, Miss = 824 (0.484), PendingHit = 8 (0.0047)
Cache L2_bank_001:	Size = 131072 B (64 Set x 16-way x 128 byte line)
		Access = 1705, Miss = 825 (0.484), PendingHit = 9 (0.00528)
Cache L2_bank_002:	Size = 131072 B (64 Set x 16-way x 128 byte line)
		Access = 1697, Miss = 823 (0.485), PendingHit = 6 (0.00354)
Cache L2_bank_003:	Size = 131072 B (64 Set x 16-way x 128 byte line)
		Access = 1826, Miss = 825 (0.452), PendingHit = 8 (0.00438)
Cache L2_bank_004:	Size = 131072 B (64 Set x 16-way x 128 byte line)
		Access = 1693, Miss = 824 (0.487), PendingHit = 4 (0.00236)
L2 Cache Total Miss Rate = 0.478

icnt_total_pkts_mem_to_simt=42703
icnt_total_pkts_simt_to_mem=8623

LD_mem_lat_dist  0 0 0 0 0 0 0 0 0 0 0 0 0 0 0 0 0 0 0 0 0 0 0 0 0 0 0
ST_mem_lat_dist  0 0 0 0 0 0 0 0 0 0 0 0 0 0 0 0 0 0 0 0 0 0 0 0 0 0 0
Traffic 0 Stat
%=================================
% Average latency = 44.2017
% Accepted packets = 0 at node 0 (avg = 0.0132649)
lat(1) = 44.2017;
thru(1,:) = [ 0 0 0 0 0 0 0 0 0 0 0 0 0 0 0.0593383 0.0594429 0.059164 0.068124 0.0590245 0 0 0 0 ];
% latency change    = 1
% throughput change = 1
Traffic 1 Stat
%=================================
% Average latency = 14.1679
% Accepted packets = 0 at node 14 (avg = 0.0647301)
lat(2) = 14.1679;
thru(2,:) = [ 0.150856 0.136387 0.157829 0.0792804 0.0794547 0.132901 0.153645 0.14458 0.0688561 0.0836733 0.0735627 0.0686818 0.0902277 0.0688561 0 0 0 0 0 0 0 0 0 ];
% latency change    = 2.11984
% throughput change = 0.795073
----------------------------Interconnect-DETAILS---------------------------------=======Traffic[0]class0 ======
Traffic[0]class0Overall average latency = 44.2017 (1 samples)
Traffic[0]class0Overall average accepted rate = 0.0132649 (1 samples)
Traffic[0]class0Overall min accepted rate = 0 (1 samples)
traffic_manager/latency_stat_0_freq = [ 0 5162 682 97 56 16 12 19 15 21 7 17 10 22 5 26 5 22 9 23 6 20 12 25 5 16 1 16 5 12 8 20 9 21 11 9 1 18 7 15 7 18 3 18 4 14 7 20 9 25 5 12 5 11 8 11 3 14 8 13 2 11 3 20 3 12 5 14 11 18 4 19 7 13 9 11 4 14 8 15 6 11 2 13 6 7 4 18 6 14 5 21 9 13 4 10 2 13 3 12 5 17 2 21 6 17 4 12 2 9 10 17 5 11 4 13 3 13 5 13 8 14 4 12 6 8 3 14 5 7 4 8 5 19 3 19 7 10 3 14 3 24 2 6 3 13 2 11 6 11 3 8 2 15 1 8 2 15 3 12 5 16 4 14 1 13 3 12 1 11 2 15 3 21 7 15 5 12 5 19 5 5 2 12 4 9 3 12 3 14 4 12 3 12 2 9 5 9 2 8 1 7 4 8 3 9 5 10 5 7 1 9 0 13 0 10 1 4 3 17 4 8 2 10 1 10 1 11 3 7 5 11 0 11 3 9 4 11 2 8 3 5 4 9 0 7 2 11 1 8 4 9 4 10 1 7 4 8 1 9 2 7 1 6 4 8 2 8 2 12 1 3 4 8 3 7 4 5 2 8 3 5 3 3 1 6 4 6 1 6 0 4 1 1 1 6 0 3 2 3 4 3 1 11 3 6 1 6 1 6 0 9 3 5 5 5 0 3 0 2 0 3 0 1 1 0 1 5 1 9 1 10 1 4 2 1 1 5 1 4 0 2 2 2 2 7 0 4 0 3 2 6 0 5 0 6 0 1 0 2 0 4 0 4 1 1 3 4 0 3 0 2 1 3 1 3 0 2 0 3 0 0 1 3 0 0 0 4 0 2 1 0 0 3 0 3 0 0 0 0 1 1 1 0 0 2 0 0 0 0 0 0 0 1 0 0 0 0 0 1 0 0 0 1 0 0 0 0 0 0 0 1 0 0 0 0 0 0 0 0 0 0 0 1 0 0 0 0 0 0 0 0 0 0 0 0 0 0 0 0 0 0 0 0 0 0 0 0 0 0 0 0 0 0 0 0 0 0 0 0 0 0 0 0 0 0 0 0 0 0 0 0 0 0 0 0 0 0 0 0 0 0 0 0 0 0 0 0 0 0 0 0 0 0 0 0 0 0 0 0 0 0 0 0 0 0 0 0 0 0 0 0 0 0 0 0 0 0 0 0 0 0 0 0 0 0 0 0 0 0 0 0 0 0 0 0 0 0 0 0 0 0 0 0 0 0 0 0 0 0 0 0 0 0 0 0 0 0 0 0 0 0 0 0 0 0 0 0 0 0 0 0 0 0 0 0 0 0 0 0 0 0 0 0 0 0 0 0 0 0 0 0 0 0 0 0 0 0 0 0 0 0 0 0 0 0 0 0 0 0 0 0 0 0 0 0 0 0 0 0 0 0 0 0 0 0 0 0 0 0 0 0 0 0 0 0 0 0 0 0 0 0 0 0 0 0 0 0 0 0 0 0 0 0 0 0 0 0 0 0 0 0 0 0 0 0 0 0 0 0 0 0 0 0 0 0 0 0 0 0 0 0 0 0 0 0 0 0 0 0 0 0 0 0 0 0 0 0 0 0 0 0 0 0 0 0 0 0 0 0 0 0 0 0 0 0 0 0 0 0 0 0 0 0 0 0 0 0 0 0 0 0 0 0 0 0 0 0 0 0 0 0 0 0 0 0 0 0 0 0 0 0 0 0 0 0 0 0 0 0 0 0 0 0 0 0 0 0 0 0 0 0 0 0 0 0 0 0 0 0 0 0 0 0 0 0 0 0 0 0 0 0 0 0 0 0 0 0 0 0 0 0 0 0 0 0 0 0 0 0 0 0 0 0 0 0 0 0 0 0 0 0 0 0 0 0 0 0 0 0 0 0 0 0 0 0 0 0 0 0 0 0 0 0 0 0 0 0 0 0 0 0 0 0 0 0 0 0 0 0 0 0 0 0 0 0 0 0 0 0 0 0 0 0 0 0 0 0 0 0 0 0 0 0 0 0 0 0 0 0 0 0 0 0 0 0 0 0 0 0 0 0 0 0 0 0 0 0 0 0 0 0 0 0 0 0 0 0 0 0 0 0 0 0 0 0 0 0 0 0 0 0 0 0 0 0 0 0 0 0 0 0 0 0 0 0 0 0 0 0 0 0 0 0 0 0 0 0 0 0 0 0 0 0 0 0 0 0 0 0 0 0 0 0 0 0 0 0 0 0 ];
Traffic[0]class1Average hops = 1 (8623 samples)
traffic_manager/hop_stats_freq = [ 0 8623 0 0 0 0 0 0 0 0 0 0 0 0 0 0 0 0 0 0 ];
=======Traffic[1]class0 ======
Traffic[1]class0Overall average latency = 14.1679 (1 samples)
Traffic[1]class0Overall average accepted rate = 0.0647301 (1 samples)
Traffic[1]class0Overall min accepted rate = 0 (1 samples)
traffic_manager/latency_stat_0_freq = [ 0 0 107 2 2 1321 236 201 490 605 271 233 230 246 321 148 1815 117 120 159 128 861 62 54 71 57 395 31 19 24 10 134 9 9 10 13 51 2 3 2 2 30 1 2 3 2 7 0 0 0 0 5 0 0 1 0 1 0 0 0 0 0 0 0 0 0 0 0 0 0 0 0 0 0 0 0 0 0 0 0 0 0 0 0 0 0 0 0 0 0 0 0 0 0 0 0 0 0 0 0 0 0 0 0 0 0 0 0 0 0 0 0 0 0 0 0 0 0 0 0 0 0 0 0 0 0 0 0 0 0 0 0 0 0 0 0 0 0 0 0 0 0 0 0 0 0 0 0 0 0 0 0 0 0 0 0 0 0 0 0 0 0 0 0 0 0 0 0 0 0 0 0 0 0 0 0 0 0 0 0 0 0 0 0 0 0 0 0 0 0 0 0 0 0 0 0 0 0 0 0 0 0 0 0 0 0 0 0 0 0 0 0 0 0 0 0 0 0 0 0 0 0 0 0 0 0 0 0 0 0 0 0 0 0 0 0 0 0 0 0 0 0 0 0 0 0 0 0 0 0 0 0 0 0 0 0 0 0 0 0 0 0 0 0 0 0 0 0 0 0 0 0 0 0 0 0 0 0 0 0 0 0 0 0 0 0 0 0 0 0 0 0 0 0 0 0 0 0 0 0 0 0 0 0 0 0 0 0 0 0 0 0 0 0 0 0 0 0 0 0 0 0 0 0 0 0 0 0 0 0 0 0 0 0 0 0 0 0 0 0 0 0 0 0 0 0 0 0 0 0 0 0 0 0 0 0 0 0 0 0 0 0 0 0 0 0 0 0 0 0 0 0 0 0 0 0 0 0 0 0 0 0 0 0 0 0 0 0 0 0 0 0 0 0 0 0 0 0 0 0 0 0 0 0 0 0 0 0 0 0 0 0 0 0 0 0 0 0 0 0 0 0 0 0 0 0 0 0 0 0 0 0 0 0 0 0 0 0 0 0 0 0 0 0 0 0 0 0 0 0 0 0 0 0 0 0 0 0 0 0 0 0 0 0 0 0 0 0 0 0 0 0 0 0 0 0 0 0 0 0 0 0 0 0 0 0 0 0 0 0 0 0 0 0 0 0 0 0 0 0 0 0 0 0 0 0 0 0 0 0 0 0 0 0 0 0 0 0 0 0 0 0 0 0 0 0 0 0 0 0 0 0 0 0 0 0 0 0 0 0 0 0 0 0 0 0 0 0 0 0 0 0 0 0 0 0 0 0 0 0 0 0 0 0 0 0 0 0 0 0 0 0 0 0 0 0 0 0 0 0 0 0 0 0 0 0 0 0 0 0 0 0 0 0 0 0 0 0 0 0 0 0 0 0 0 0 0 0 0 0 0 0 0 0 0 0 0 0 0 0 0 0 0 0 0 0 0 0 0 0 0 0 0 0 0 0 0 0 0 0 0 0 0 0 0 0 0 0 0 0 0 0 0 0 0 0 0 0 0 0 0 0 0 0 0 0 0 0 0 0 0 0 0 0 0 0 0 0 0 0 0 0 0 0 0 0 0 0 0 0 0 0 0 0 0 0 0 0 0 0 0 0 0 0 0 0 0 0 0 0 0 0 0 0 0 0 0 0 0 0 0 0 0 0 0 0 0 0 0 0 0 0 0 0 0 0 0 0 0 0 0 0 0 0 0 0 0 0 0 0 0 0 0 0 0 0 0 0 0 0 0 0 0 0 0 0 0 0 0 0 0 0 0 0 0 0 0 0 0 0 0 0 0 0 0 0 0 0 0 0 0 0 0 0 0 0 0 0 0 0 0 0 0 0 0 0 0 0 0 0 0 0 0 0 0 0 0 0 0 0 0 0 0 0 0 0 0 0 0 0 0 0 0 0 0 0 0 0 0 0 0 0 0 0 0 0 0 0 0 0 0 0 0 0 0 0 0 0 0 0 0 0 0 0 0 0 0 0 0 0 0 0 0 0 0 0 0 0 0 0 0 0 0 0 0 0 0 0 0 0 0 0 0 0 0 0 0 0 0 0 0 0 0 0 0 0 0 0 0 0 0 0 0 0 0 0 0 0 0 0 0 0 0 0 0 0 0 0 0 0 0 0 0 0 0 0 0 0 0 0 0 0 0 0 0 0 0 0 0 0 0 0 0 0 0 0 0 0 0 0 0 0 0 0 0 0 0 0 0 0 0 0 0 0 0 0 0 0 0 0 0 0 0 0 0 0 0 0 0 0 0 0 0 0 0 0 0 0 0 0 ];
Traffic[1]class1Average hops = 1 (8623 samples)
traffic_manager/hop_stats_freq = [ 0 8623 0 0 0 0 0 0 0 0 0 0 0 0 0 0 0 0 0 0 ];
----------------------------END-of-Interconnect-DETAILS-------------------------

gpgpu_simulation_time = 0 days, 0 hrs, 0 min, 9 sec (9 sec)
gpgpu_simulation_rate = 611207 (inst/sec)
gpgpu_simulation_rate = 1593 (cycle/sec)

kernel '_Z26histo_intermediates_kernelP5uint2jjjP6uchar4' transfer to GPU hardware scheduler
kernel_name = _Z26histo_intermediates_kernelP5uint2jjjP6uchar4 
kernel_launch_uid = 2 
gpu_sim_cycle = 133959
gpu_sim_insn = 15893670
gpu_ipc =     118.6458
gpu_tot_sim_cycle = 148301
gpu_tot_sim_insn = 21394534
gpu_tot_ipc =     144.2643
gpu_tot_issued_cta = 0
gpu_stall_dramfull = 304761
gpu_stall_icnt2sh    = 39311
gpu_total_sim_rate=289115
Cache L1D_000:	Size = 16384 B (32 Set x 4-way x 128 byte line)
		Access = 5858, Miss = 4708 (0.804), PendingHit = 267 (0.0456)
Cache L1D_001:	Size = 16384 B (32 Set x 4-way x 128 byte line)
		Access = 5738, Miss = 4789 (0.835), PendingHit = 474 (0.0826)
Cache L1D_002:	Size = 16384 B (32 Set x 4-way x 128 byte line)
		Access = 3692, Miss = 2869 (0.777), PendingHit = 262 (0.071)
Cache L1D_003:	Size = 16384 B (32 Set x 4-way x 128 byte line)
		Access = 3182, Miss = 2342 (0.736), PendingHit = 323 (0.102)
Cache L1D_004:	Size = 16384 B (32 Set x 4-way x 128 byte line)
		Access = 3182, Miss = 2333 (0.733), PendingHit = 298 (0.0937)
Cache L1D_005:	Size = 16384 B (32 Set x 4-way x 128 byte line)
		Access = 5730, Miss = 4563 (0.796), PendingHit = 429 (0.0749)
Cache L1D_006:	Size = 16384 B (32 Set x 4-way x 128 byte line)
		Access = 5862, Miss = 4672 (0.797), PendingHit = 329 (0.0561)
Cache L1D_007:	Size = 16384 B (32 Set x 4-way x 128 byte line)
		Access = 5856, Miss = 4602 (0.786), PendingHit = 175 (0.0299)
Cache L1D_008:	Size = 16384 B (32 Set x 4-way x 128 byte line)
		Access = 5094, Miss = 4290 (0.842), PendingHit = 188 (0.0369)
Cache L1D_009:	Size = 16384 B (32 Set x 4-way x 128 byte line)
		Access = 2928, Miss = 2418 (0.826), PendingHit = 37 (0.0126)
Cache L1D_010:	Size = 16384 B (32 Set x 4-way x 128 byte line)
		Access = 4376, Miss = 3066 (0.701), PendingHit = 124 (0.0283)
Cache L1D_011:	Size = 16384 B (32 Set x 4-way x 128 byte line)
		Access = 2930, Miss = 2374 (0.81), PendingHit = 233 (0.0795)
Cache L1D_012:	Size = 16384 B (32 Set x 4-way x 128 byte line)
		Access = 3436, Miss = 2555 (0.744), PendingHit = 326 (0.0949)
Cache L1D_013:	Size = 16384 B (32 Set x 4-way x 128 byte line)
		Access = 5094, Miss = 4459 (0.875), PendingHit = 145 (0.0285)
total_dl1_misses=50040
total_dl1_accesses=62958
total_dl1_miss_rate= 0.794816
Shader 0 dynamic_warp_id issue ditsribution:
dynamic_warp_id:
0, 1, 2, 3, 4, 5, 6, 7, 8, 9, 10, 11, 12, 13, 14, 15, 16, 17, 18, 19, 20, 21, 22, 23, 24, 25, 26, 27, 28, 29, 30, 31, 32, 33, 34, 35, 36, 37, 38, 39, 40, 41, 42, 43, 44, 45, 46, 47, 48, 49, 50, 51, 52, 53, 54, 55, 56, 57, 58, 59, 60, 61, 62, 63, 64, 65, 66, 67, 68, 69, 70, 71, 72, 73, 74, 75, 76, 77, 78, 79, 80, 81, 82, 83, 84, 85, 86, 87, 88, 89, 90, 91, 92, 93, 94, 95, 96, 97, 98, 99, 100, 101, 102, 103, 104, 105, 106, 107, 108, 109, 110, 111, 112, 113, 114, 115, 116, 117, 118, 119, 120, 121, 122, 123, 124, 125, 126, 127, 128, 129, 130, 131, 132, 133, 134, 135, 136, 137, 138, 139, 140, 141, 142, 143, 144, 145, 146, 147, 148, 149, 150, 151, 152, 153, 154, 155, 156, 157, 158, 159, 160, 161, 162, 163, 164, 165, 166, 167, 168, 169, 170, 171, 172, 173, 174, 175, 176, 177, 178, 179, 180, 181, 182, 183, 184, 185, 186, 187, 188, 189, 190, 191, 
distro:
269, 201, 188, 188, 175, 175, 175, 175, 162, 162, 162, 162, 162, 162, 162, 162, 269, 201, 188, 188, 175, 175, 175, 175, 162, 162, 162, 162, 162, 162, 162, 162, 269, 201, 188, 188, 175, 175, 175, 175, 162, 162, 162, 162, 162, 162, 162, 162, 269, 201, 188, 188, 175, 175, 175, 175, 162, 162, 162, 162, 162, 162, 162, 162, 269, 201, 188, 188, 175, 175, 175, 175, 162, 162, 162, 162, 162, 162, 162, 162, 269, 201, 188, 188, 175, 175, 175, 175, 162, 162, 162, 162, 162, 162, 162, 162, 507, 507, 507, 507, 507, 507, 507, 507, 507, 507, 507, 507, 507, 507, 507, 507, 507, 507, 507, 507, 507, 507, 507, 507, 507, 507, 507, 507, 507, 507, 507, 507, 507, 507, 507, 507, 507, 507, 507, 507, 507, 507, 507, 507, 507, 507, 507, 507, 507, 507, 507, 507, 507, 507, 507, 507, 507, 507, 507, 507, 507, 507, 507, 507, 507, 507, 507, 507, 507, 507, 507, 507, 507, 507, 507, 507, 507, 507, 507, 507, 507, 507, 507, 507, 507, 507, 507, 507, 507, 507, 507, 507, 507, 507, 507, 507, 
gpgpu_n_tot_thrd_icount = 22693376
gpgpu_n_tot_w_icount = 709168
gpgpu_n_icache_hits = 368800
gpgpu_n_icache_misses = 16800
gpgpu_n_l1dcache_read_hits = 9308
gpgpu_n_l1dcache_read_misses = 53650
gpgpu_n_l1dcache_write_accesses = 154440
gpgpu_n_l1dcache_wirte_misses = 154440
gpgpu_n_tcache_hits = 0
gpgpu_n_tcache_misses = 0
gpgpu_n_ccache_hits = 55728
gpgpu_n_ccache_misses = 448
gpgpu_n_stall_shd_mem = 1430093
gpgpu_n_mem_read_local = 0
gpgpu_n_mem_write_local = 0
gpgpu_n_mem_read_global = 50168
gpgpu_n_mem_write_global = 154440
gpgpu_n_mem_texture = 0
gpgpu_n_mem_const = 14
gpgpu_n_load_insn  = 1553984
gpgpu_n_store_insn = 2071680
gpgpu_n_shmem_insn = 782208
gpgpu_n_tex_insn = 0
gpgpu_n_const_mem_insn = 0
gpgpu_n_param_mem_insn = 3498476
gpgpu_n_shmem_bkconflict = 0
gpgpu_n_cache_bkconflict = 0
gpgpu_n_intrawarp_mshr_merge = 0
gpgpu_n_cmem_portconflict = 2359
gpgpu_stall_shd_mem[c_mem][bk_conf] = 2359
gpgpu_stall_shd_mem[c_mem][mshr_rc] = 0
gpgpu_stall_shd_mem[c_mem][icnt_rc] = 0
gpgpu_stall_shd_mem[t_mem][mshr_rc] = 0
gpgpu_stall_shd_mem[t_mem][icnt_rc] = 0
gpgpu_stall_shd_mem[s_mem][bk_conf] = 0
gpgpu_stall_shd_mem[gl_mem][bk_conf] = 0
gpgpu_stall_shd_mem[gl_mem][coal_stall] = 1427734
gpgpu_stall_shd_mem[g_mem_ld][mshr_rc] = 0
gpgpu_stall_shd_mem[g_mem_ld][icnt_rc] = 0
gpgpu_stall_shd_mem[g_mem_ld][wb_icnt_rc] = 0
gpgpu_stall_shd_mem[g_mem_ld][wb_rsrv_fail] = 0
gpgpu_stall_shd_mem[g_mem_st][mshr_rc] = 0
gpgpu_stall_shd_mem[g_mem_st][icnt_rc] = 0
gpgpu_stall_shd_mem[g_mem_st][wb_icnt_rc] = 0
gpgpu_stall_shd_mem[g_mem_st][wb_rsrv_fail] = 0
gpgpu_stall_shd_mem[l_mem_ld][mshr_rc] = 0
gpgpu_stall_shd_mem[l_mem_ld][icnt_rc] = 0
gpgpu_stall_shd_mem[l_mem_ld][wb_icnt_rc] = 0
gpgpu_stall_shd_mem[l_mem_ld][wb_rsrv_fail] = 0
gpgpu_stall_shd_mem[l_mem_st][mshr_rc] = 0
gpgpu_stall_shd_mem[l_mem_st][icnt_rc] = 0
gpgpu_stall_shd_mem[l_mem_ld][wb_icnt_rc] = 0
gpgpu_stall_shd_mem[l_mem_ld][wb_rsrv_fail] = 0
gpu_reg_bank_conflict_stalls = 0
Warp Occupancy Distribution:
Stall:2158744	W0_Idle:529770	W0_Scoreboard:62422	W1:1472	W2:512	W3:0	W4:512	W5:0	W6:0	W7:1088	W8:512	W9:0	W10:0	W11:0	W12:0	W13:0	W14:0	W15:0	W16:512	W17:0	W18:32955	W19:0	W20:0	W21:0	W22:0	W23:0	W24:0	W25:0	W26:0	W27:0	W28:0	W29:0	W30:0	W31:0	W32:671605
maxmrqlatency = 350 
maxdqlatency = 0 
maxmflatency = 1087 
averagemflatency = 419 
max_icnt2mem_latency = 3453 
max_icnt2sh_latency = 148300 
mrq_lat_table:54506 	3676 	5829 	19847 	40912 	58696 	39624 	8300 	117 	0 	0 	0 	0 	0 	0 	0 	0 	0 	0 	0 	0 	0 	0 	0 	0 	0 	0 	0 	0 	0 	0 	0 	
dq_lat_table:0 	0 	0 	0 	0 	0 	0 	0 	0 	0 	0 	0 	0 	0 	0 	0 	0 	0 	0 	0 	0 	0 	0 	0 	0 	0 	0 	0 	0 	0 	0 	0 	
mf_lat_table:0 	0 	0 	0 	0 	0 	4721 	23328 	123595 	52975 	3 	0 	0 	0 	0 	0 	0 	0 	0 	0 	0 	0 	0 	0 	0 	0 	0 	0 	0 	0 	0 	0 	
icnt2mem_lat_table:220 	9531 	2878 	4602 	23189 	41906 	35443 	51393 	36029 	322 	76 	7 	0 	0 	0 	0 	0 	0 	0 	0 	0 	0 	0 	0 	
icnt2sh_lat_table:107 	25863 	15272 	8205 	720 	15 	0 	0 	0 	0 	0 	0 	0 	118 	23231 	37387 	76298 	17406 	0 	0 	0 	0 	0 	0 	
mf_lat_pw_table:0 	0 	0 	0 	0 	0 	10 	14 	212 	54 	0 	0 	0 	0 	0 	0 	0 	0 	0 	0 	0 	0 	0 	0 	0 	0 	0 	0 	0 	0 	0 	0 	
maximum concurrent accesses to same row:
dram[0]:        21        26        29        17        23        20        32        47        25        26        22        24        22        37        27        24 
dram[1]:        21        26        21        21        36        21        21        55        23        23        21        26        21        21        26        23 
dram[2]:        18        24        25        21        28        21        20        55        25        19        25        21        21        28        27        21 
dram[3]:        40        31        18        25        26        22        25        57        25        21        21        28        20        28        26        23 
dram[4]:        34        20        20        18        21        24        26        54        28        21        20        40        17        28        27        21 
maximum service time to same row:
dram[0]:      3284      6802      1812      1771      7294      6338      1578      8733      5708      2474      8628      5594      3184      6083      6299      1938 
dram[1]:      4043      6830      1708      1939      7306      6201      1453      8732      5755      1861      8646      5601      1721      6116      6108      1912 
dram[2]:      5654      7288      1779      1972      7246      6342      1462      8701      5700      3236      8641      5444      2149      6039      5630      1742 
dram[3]:      5406      6852      1439      4457      9215      6408      1669      8701      5617      1779      8659      5303      1810      5870      5899      1934 
dram[4]:      4133      6744      1660      1973      7325      6265      1592      8716      5843      1729      8611      5404      1654      5812      5808      2139 
average row accesses per activate:
dram[0]:  3.930362  4.128671  3.992816  3.784370  3.951548  4.225071  3.835106  3.980636  3.924242  4.094499  4.134771  4.290234  3.788340  4.236918  4.053009  3.809722 
dram[1]:  3.987342  3.941970  3.934659  3.712034  3.788387  4.199434  3.892038  3.820479  4.053672  4.008265  4.155827  4.219512  3.891361  4.074334  4.021097  3.714477 
dram[2]:  3.960894  4.046576  3.847856  3.682203  4.000000  4.143055  3.965659  3.780263  4.005634  3.900000  4.150000  4.254422  3.897135  4.215318  3.891452  3.745946 
dram[3]:  3.921271  4.055249  3.903900  3.673267  4.023288  4.208807  3.923393  3.986150  3.957064  4.022130  4.064901  4.229932  3.817481  4.215007  3.751309  3.676393 
dram[4]:  4.054131  4.037344  3.987087  3.635098  3.867280  4.327486  3.914750  3.981970  3.918256  4.136752  4.048684  4.211590  3.825864  3.916779  3.945355  3.784153 
average row locality = 231507/58254 = 3.974096
number of total memory accesses made:
dram[0]:         0         0         0         0         0         0         0         0         0         0         0         0         0         0         0         0 
dram[1]:         0         0         0         0         0         0         0         0         0         0         0         0         0         0         0         0 
dram[2]:         0         0         0         0         0         0         0         0         0         0         0         0         0         0         0         0 
dram[3]:         0         0         0         0         0         0         0         0         0         0         0         0         0         0         0         0 
dram[4]:         0         0         0         0         0         0         0         0         0         0         0         0         0         0         0         0 
total accesses: 0
min_bank_accesses = 0!
min_chip_accesses = 0!
number of total read accesses:
dram[0]:      1178      1246      1174      1076      1180      1206      1159      1172      1165      1157      1252      1284      1223      1169      1191      1155 
dram[1]:      1190      1248      1180      1077      1180      1207      1156      1167      1168      1156      1241      1283      1208      1161      1196      1162 
dram[2]:      1191      1266      1181      1078      1181      1206      1151      1162      1151      1144      1240      1289      1219      1171      1202      1176 
dram[3]:      1197      1248      1185      1068      1177      1190      1140      1160      1153      1153      1249      1288      1220      1181      1205      1171 
dram[4]:      1194      1233      1173      1060      1174      1193      1156      1161      1171      1159      1267      1291      1229      1176      1217      1166 
total reads: 94980
bank skew: 1291/1060 = 1.22
chip skew: 19020/18980 = 1.00
number of total write accesses:
dram[0]:      1644      1706      1605      1539      1756      1760      1725      1706      1684      1746      1816      1835      1766      1746      1638      1588 
dram[1]:      1645      1673      1590      1514      1756      1762      1728      1706      1702      1754      1826      1831      1765      1744      1663      1609 
dram[2]:      1645      1688      1601      1529      1771      1777      1736      1711      1693      1742      1831      1838      1774      1746      1666      1596 
dram[3]:      1642      1688      1618      1529      1760      1773      1728      1718      1704      1755      1820      1821      1750      1740      1661      1601 
dram[4]:      1652      1686      1606      1550      1769      1767      1737      1710      1705      1745      1810      1834      1759      1742      1671      1604 
total reads: 136527
bank skew: 1838/1514 = 1.21
chip skew: 27347/27260 = 1.00
average mf latency per bank:
dram[0]:        356       353       366       378       367       368       375       363       360       359       346       347       365       358       363       373
dram[1]:        365       362       371       382       374       369       380       375       371       364       350       361       368       371       369       379
dram[2]:        369       369       381       388       378       380       385       381       374       376       356       369       374       372       378       386
dram[3]:        361       361       372       387       376       374       378       372       369       369       357       357       373       362       376       379
dram[4]:        366       367       378       385       383       379       379       378       370       369       359       361       371       365       373       381
maximum mf latency per bank:
dram[0]:        946       884       923       844       912       892       891       866       775       896       878       831       862       898       863       880
dram[1]:        960       819      1003       903       991       892      1087       899       855       878       903       966       916       914       926       989
dram[2]:        981       870       945       924       910      1070      1013       940       897       986       892       889       882       910       980       937
dram[3]:        956       929       923       835       892       859       937       880       878       903       821       981       917       827       964       883
dram[4]:       1037       996       899       928       881       825       894       930       916       897       964       847       791       913       860       926

Number of Memory Banks Accessed per Memory Operation per Warp (from 0):
0	0	0	0	0	0	0	0	0	0	0	0	0	0	0	0	0	0	0	0	0	0	0	0	0	0	0	0	0	0	0	0	0	0	0	0	0	0	0	0	0	0	0	0	0	0	0	0	0	0	0	0	0	0	0	0	0	0	0	0	0	0	0	0	0	0	0	0	0	0	0	0	0	0	0	0	0	0	0	0	
Average # of Memory Banks Accessed per Memory Operation per Warp=-nan

position of mrq chosen
0	0	0	0	0	0	0	0	0	0	0	0	0	0	0	0	

average position of mrq chosen = -nan
gpgpu_l2_write_miss = 0
gpgpu_l2_write_access = 0
gpgpu_l2_read_miss = 0
gpgpu_l2_read_access = 0
Cache L2_bank_000:
MSHR contents

DRAM[0]: 16 bks, busW=4 BL=8 CL=12, tRRD=2 tCCD=6, tRCD=12 tRAS=28 tRP=12 tRC=40
n_cmd=266939 n_nop=176260 n_act=11540 n_pre=11524 n_req=46247 n_rd=37974 n_write=29641 bw_util=0.5066
n_activity=239248 dram_eff=0.5652
bk0: 2356a 200964i bk1: 2492a 197102i bk2: 2348a 194348i bk3: 2152a 194451i bk4: 2360a 196946i bk5: 2412a 193671i bk6: 2318a 193858i bk7: 2344a 193824i bk8: 2330a 191549i bk9: 2314a 189672i bk10: 2504a 192537i bk11: 2568a 187230i bk12: 2446a 183439i bk13: 2338a 179843i bk14: 2382a 166275i bk15: 2310a 126590i 
dram_util_bins: 0 0 0 0 0 0 0 0 0 0
dram_eff_bins: 0 0 0 0 0 0 0 0 0 0
mrqq: max=16 avg=11.5611
Cache L2_bank_001:
MSHR contents

DRAM[1]: 16 bks, busW=4 BL=8 CL=12, tRRD=2 tCCD=6, tRCD=12 tRAS=28 tRP=12 tRC=40
n_cmd=266939 n_nop=175998 n_act=11674 n_pre=11658 n_req=46248 n_rd=37960 n_write=29649 bw_util=0.5066
n_activity=239279 dram_eff=0.5651
bk0: 2380a 199886i bk1: 2496a 198005i bk2: 2360a 193939i bk3: 2154a 195004i bk4: 2360a 196584i bk5: 2414a 193564i bk6: 2312a 192297i bk7: 2334a 192861i bk8: 2336a 191439i bk9: 2312a 189757i bk10: 2482a 192380i bk11: 2566a 186604i bk12: 2416a 183420i bk13: 2322a 180777i bk14: 2392a 165398i bk15: 2324a 125575i 
dram_util_bins: 0 0 0 0 0 0 0 0 0 0
dram_eff_bins: 0 0 0 0 0 0 0 0 0 0
mrqq: max=16 avg=11.5874
Cache L2_bank_002:
MSHR contents

DRAM[2]: 16 bks, busW=4 BL=8 CL=12, tRRD=2 tCCD=6, tRCD=12 tRAS=28 tRP=12 tRC=40
n_cmd=266939 n_nop=175877 n_act=11686 n_pre=11670 n_req=46352 n_rd=38016 n_write=29690 bw_util=0.5073
n_activity=238631 dram_eff=0.5675
bk0: 2382a 200581i bk1: 2532a 197367i bk2: 2362a 193653i bk3: 2156a 194444i bk4: 2362a 195863i bk5: 2412a 192608i bk6: 2302a 192560i bk7: 2324a 193563i bk8: 2302a 190355i bk9: 2288a 188687i bk10: 2480a 191593i bk11: 2578a 187326i bk12: 2438a 183238i bk13: 2342a 178858i bk14: 2404a 166567i bk15: 2352a 125612i 
dram_util_bins: 0 0 0 0 0 0 0 0 0 0
dram_eff_bins: 0 0 0 0 0 0 0 0 0 0
mrqq: max=16 avg=11.7119
Cache L2_bank_003:
MSHR contents

DRAM[3]: 16 bks, busW=4 BL=8 CL=12, tRRD=2 tCCD=6, tRCD=12 tRAS=28 tRP=12 tRC=40
n_cmd=266939 n_nop=175922 n_act=11684 n_pre=11668 n_req=46293 n_rd=37970 n_write=29695 bw_util=0.507
n_activity=239082 dram_eff=0.566
bk0: 2394a 198849i bk1: 2496a 197209i bk2: 2370a 194689i bk3: 2136a 194574i bk4: 2354a 196728i bk5: 2380a 193039i bk6: 2280a 194575i bk7: 2320a 195662i bk8: 2306a 192950i bk9: 2306a 189018i bk10: 2498a 192348i bk11: 2576a 187680i bk12: 2440a 183425i bk13: 2362a 178835i bk14: 2410a 165432i bk15: 2342a 125390i 
dram_util_bins: 0 0 0 0 0 0 0 0 0 0
dram_eff_bins: 0 0 0 0 0 0 0 0 0 0
mrqq: max=16 avg=11.6066
Cache L2_bank_004:
MSHR contents

DRAM[4]: 16 bks, busW=4 BL=8 CL=12, tRRD=2 tCCD=6, tRCD=12 tRAS=28 tRP=12 tRC=40
n_cmd=266939 n_nop=175869 n_act=11673 n_pre=11657 n_req=46367 n_rd=38040 n_write=29700 bw_util=0.5075
n_activity=239259 dram_eff=0.5662
bk0: 2388a 198731i bk1: 2466a 196114i bk2: 2346a 195231i bk3: 2120a 193989i bk4: 2348a 196620i bk5: 2386a 193017i bk6: 2312a 193960i bk7: 2322a 193775i bk8: 2342a 191457i bk9: 2318a 188921i bk10: 2534a 190732i bk11: 2582a 186180i bk12: 2458a 182782i bk13: 2352a 178863i bk14: 2434a 165175i bk15: 2332a 126716i 
dram_util_bins: 0 0 0 0 0 0 0 0 0 0
dram_eff_bins: 0 0 0 0 0 0 0 0 0 0
mrqq: max=16 avg=11.6361
Cache L2_bank_000:	Size = 131072 B (64 Set x 16-way x 128 byte line)
		Access = 41128, Miss = 18987 (0.462), PendingHit = 14788 (0.36)
Cache L2_bank_001:	Size = 131072 B (64 Set x 16-way x 128 byte line)
		Access = 41066, Miss = 18980 (0.462), PendingHit = 14790 (0.36)
Cache L2_bank_002:	Size = 131072 B (64 Set x 16-way x 128 byte line)
		Access = 41066, Miss = 19008 (0.463), PendingHit = 14867 (0.362)
Cache L2_bank_003:	Size = 131072 B (64 Set x 16-way x 128 byte line)
		Access = 41202, Miss = 18985 (0.461), PendingHit = 14812 (0.359)
Cache L2_bank_004:	Size = 131072 B (64 Set x 16-way x 128 byte line)
		Access = 41134, Miss = 19020 (0.462), PendingHit = 14869 (0.361)
L2 Cache Total Miss Rate = 0.462

icnt_total_pkts_mem_to_simt=409808
icnt_total_pkts_simt_to_mem=360036

LD_mem_lat_dist  0 0 0 0 0 0 0 0 0 0 0 0 0 0 0 0 0 0 0 0 0 0 0 0 0 0 0
ST_mem_lat_dist  0 0 0 0 0 0 0 0 0 0 0 0 0 0 0 0 0 0 0 0 0 0 0 0 0 0 0
Traffic 0 Stat
%=================================
% Average latency = 147.161
% Accepted packets = 0 at node 0 (avg = 0.0570282)
lat(3) = 147.161;
thru(3,:) = [ 0 0 0 0 0 0 0 0 0 0 0 0 0 0 0.262447 0.262204 0.262234 0.26226 0.262503 0 0 0 0 ];
% latency change    = 0.903725
% throughput change = 0.135053
Traffic 1 Stat
%=================================
% Average latency = 4.08295
% Accepted packets = 0 at node 14 (avg = 0.0595747)
lat(4) = 4.08295;
thru(4,:) = [ 0.126461 0.129913 0.0642288 0.0627172 0.0625306 0.125789 0.12549 0.125397 0.127637 0.0636503 0.0951787 0.0644715 0.0659271 0.130828 0 0 0 0 0 0 0 0 0 ];
% latency change    = 35.0429
% throughput change = 0.0427453
----------------------------Interconnect-DETAILS---------------------------------=======Traffic[0]class0 ======
Traffic[0]class0Overall average latency = 95.6815 (2 samples)
Traffic[0]class0Overall average accepted rate = 0.0351466 (2 samples)
Traffic[0]class0Overall min accepted rate = 0 (2 samples)
traffic_manager/latency_stat_0_freq = [ 0 3089 3121 658 627 400 469 289 347 323 318 290 370 383 442 518 1949 2479 1828 1946 1939 2057 1980 2124 2129 2171 2164 2143 2185 2176 2241 2152 2200 2097 2150 2046 1952 2023 1990 1949 1835 1750 1821 1687 1668 1528 1569 1468 1429 1343 1406 1234 1258 1220 1155 1142 1153 1063 1098 1030 977 954 1007 928 916 842 957 889 875 821 837 791 752 756 801 744 713 743 656 700 746 651 594 640 611 652 611 591 581 585 590 537 534 542 535 500 548 513 531 531 506 415 458 426 449 440 435 407 424 410 378 363 376 406 379 376 411 366 342 355 342 346 335 359 285 300 311 318 273 285 305 311 277 307 290 338 298 285 323 320 262 299 275 266 259 238 276 230 277 253 278 226 220 225 231 234 211 234 259 256 228 254 182 229 251 227 235 225 233 218 209 201 228 202 187 222 187 202 205 215 205 196 197 184 179 171 195 227 203 170 184 195 187 167 193 197 212 187 205 198 165 207 198 209 165 194 216 190 204 198 172 178 188 175 170 169 168 176 204 196 181 165 168 179 176 167 164 193 166 191 214 183 172 189 174 194 151 181 170 163 202 188 152 182 177 189 177 214 173 183 168 155 142 160 154 159 181 172 184 166 182 167 151 178 183 174 156 154 176 138 167 153 130 161 145 153 159 130 163 161 137 170 150 152 136 153 166 134 142 166 146 140 140 137 139 159 157 143 137 164 151 150 145 159 135 172 126 142 150 154 140 163 132 146 125 164 133 149 174 154 138 150 131 143 169 151 154 122 127 138 163 142 159 157 132 158 150 126 159 141 127 143 122 149 158 131 136 132 126 124 136 145 133 159 130 128 125 113 124 114 135 125 105 122 109 122 114 133 124 138 127 131 131 125 120 117 114 120 130 131 119 119 127 123 103 122 140 127 103 109 110 120 112 129 113 136 95 109 112 128 106 120 110 114 118 129 109 104 107 100 108 117 81 86 111 89 112 124 102 88 115 92 89 116 91 108 99 120 117 106 91 86 95 95 102 91 99 97 99 98 96 68 88 85 96 88 93 91 85 98 93 81 85 109 94 106 87 78 104 91 87 85 90 100 85 99 86 107 80 108 75 91 80 82 82 116 87 86 71 79 78 87 77 89 83 104 95 81 89 86 79 84 97 90 69 76 86 82 77 89 78 79 68 83 85 69 83 76 67 87 62 83 75 86 80 82 85 70 67 73 66 69 79 67 68 66 66 75 68 88 63 72 68 87 66 83 81 81 74 92 73 80 85 83 79 101 69 71 92 103 87 81 68 80 66 89 89 86 71 77 60 78 57 65 64 80 64 84 68 64 71 75 67 64 74 62 53 68 50 49 62 66 43 53 57 57 55 58 46 78 57 54 44 54 70 63 42 54 45 52 41 70 46 43 52 68 43 56 62 44 39 41 36 48 47 44 54 48 43 47 47 57 45 51 43 45 43 43 42 50 36 53 34 32 40 36 34 42 48 41 50 37 38 43 40 34 27 41 33 30 35 27 22 46 29 26 28 33 30 29 25 34 41 28 40 31 24 23 26 29 30 32 27 21 33 34 33 36 21 24 23 31 26 37 27 21 8 23 27 20 17 16 17 20 23 17 20 25 25 18 24 19 20 24 18 22 18 17 12 16 10 17 13 24 20 26 17 17 14 14 17 16 10 13 17 23 16 20 9 26 17 19 14 16 14 22 6 11 8 11 9 10 15 13 11 9 5 11 7 10 11 9 7 10 11 9 6 7 7 9 6 8 12 9 8 15 11 5 9 9 8 5 19 5 13 11 8 11 3 6 9 12 7 12 6 5 1 4 7 4 6 3 2 2 4 2 6 2 7 2 2 3 4 3 8 5 2 3 4 1 4 2 2 2 1 1 2 0 1 2 4 1 0 3 1 1 4 1 1 1 3 0 1 2 0 2 1 2 0 2 2 1 3 0 1 0 0 2 1 1 0 3 0 3 0 0 0 0 1 1 0 1 0 1 0 0 0 0 0 0 1 1 0 0 1 0 1 0 0 0 2 0 1 1 0 0 0 1 0 2 0 0 0 0 0 1 2 0 0 0 0 0 0 1 0 0 1 1 0 0 0 0 0 0 0 0 0 0 0 0 2 0 0 0 0 0 1 0 0 0 1 1 0 0 0 0 0 1 0 0 0 0 1 1 0 0 0 0 0 0 0 1 0 0 0 0 0 0 0 0 0 0 0 0 0 0 0 0 0 0 0 0 0 0 0 1 0 1 0 0 1 0 0 0 0 0 0 0 0 0 0 0 0 0 0 0 0 0 0 2 ];
Traffic[0]class1Average hops = 1 (205596 samples)
traffic_manager/hop_stats_freq = [ 0 205596 0 0 0 0 0 0 0 0 0 0 0 0 0 0 0 0 0 0 ];
=======Traffic[1]class0 ======
Traffic[1]class0Overall average latency = 9.12543 (2 samples)
Traffic[1]class0Overall average accepted rate = 0.0621524 (2 samples)
Traffic[1]class0Overall min accepted rate = 0 (2 samples)
traffic_manager/latency_stat_0_freq = [ 0 101696 11743 6518 7879 27886 6599 4398 6305 4562 2761 1991 1748 1531 1283 965 2018 970 745 596 578 798 405 361 287 248 323 208 159 156 123 173 113 95 54 60 102 52 45 33 46 37 34 15 38 17 21 15 14 9 12 14 12 2 5 10 5 4 6 7 9 4 5 16 2 2 8 5 6 0 1 4 7 1 2 1 1 0 2 0 0 2 1 0 1 1 0 1 1 0 0 0 0 0 0 0 0 0 0 0 0 0 0 0 0 0 0 0 0 0 0 0 0 0 0 0 0 0 0 0 0 0 0 0 0 0 0 0 0 0 0 0 0 0 0 0 0 0 0 0 0 0 0 0 0 0 0 0 0 0 0 0 0 0 0 0 0 0 0 0 0 0 0 0 0 0 0 0 0 0 0 0 0 0 0 0 0 0 0 0 0 0 0 0 0 0 0 0 0 0 0 0 0 0 0 0 0 0 0 0 0 0 0 0 0 0 0 0 0 0 0 0 0 0 0 0 0 0 0 0 0 0 0 0 0 0 0 0 0 0 0 0 0 0 0 0 0 0 0 0 0 0 0 0 0 0 0 0 0 0 0 0 0 0 0 0 0 0 0 0 0 0 0 0 0 0 0 0 0 0 0 0 0 0 0 0 0 0 0 0 0 0 0 0 0 0 0 0 0 0 0 0 0 0 0 0 0 0 0 0 0 0 0 0 0 0 0 0 0 0 0 0 0 0 0 0 0 0 0 0 0 0 0 0 0 0 0 0 0 0 0 0 0 0 0 0 0 0 0 0 0 0 0 0 0 0 0 0 0 0 0 0 0 0 0 0 0 0 0 0 0 0 0 0 0 0 0 0 0 0 0 0 0 0 0 0 0 0 0 0 0 0 0 0 0 0 0 0 0 0 0 0 0 0 0 0 0 0 0 0 0 0 0 0 0 0 0 0 0 0 0 0 0 0 0 0 0 0 0 0 0 0 0 0 0 0 0 0 0 0 0 0 0 0 0 0 0 0 0 0 0 0 0 0 0 0 0 0 0 0 0 0 0 0 0 0 0 0 0 0 0 0 0 0 0 0 0 0 0 0 0 0 0 0 0 0 0 0 0 0 0 0 0 0 0 0 0 0 0 0 0 0 0 0 0 0 0 0 0 0 0 0 0 0 0 0 0 0 0 0 0 0 0 0 0 0 0 0 0 0 0 0 0 0 0 0 0 0 0 0 0 0 0 0 0 0 0 0 0 0 0 0 0 0 0 0 0 0 0 0 0 0 0 0 0 0 0 0 0 0 0 0 0 0 0 0 0 0 0 0 0 0 0 0 0 0 0 0 0 0 0 0 0 0 0 0 0 0 0 0 0 0 0 0 0 0 0 0 0 0 0 0 0 0 0 0 0 0 0 0 0 0 0 0 0 0 0 0 0 0 0 0 0 0 0 0 0 0 0 0 0 0 0 0 0 0 0 0 0 0 0 0 0 0 0 0 0 0 0 0 0 0 0 0 0 0 0 0 0 0 0 0 0 0 0 0 0 0 0 0 0 0 0 0 0 0 0 0 0 0 0 0 0 0 0 0 0 0 0 0 0 0 0 0 0 0 0 0 0 0 0 0 0 0 0 0 0 0 0 0 0 0 0 0 0 0 0 0 0 0 0 0 0 0 0 0 0 0 0 0 0 0 0 0 0 0 0 0 0 0 0 0 0 0 0 0 0 0 0 0 0 0 0 0 0 0 0 0 0 0 0 0 0 0 0 0 0 0 0 0 0 0 0 0 0 0 0 0 0 0 0 0 0 0 0 0 0 0 0 0 0 0 0 0 0 0 0 0 0 0 0 0 0 0 0 0 0 0 0 0 0 0 0 0 0 0 0 0 0 0 0 0 0 0 0 0 0 0 0 0 0 0 0 0 0 0 0 0 0 0 0 0 0 0 0 0 0 0 0 0 0 0 0 0 0 0 0 0 0 0 0 0 0 0 0 0 0 0 0 0 0 0 0 0 0 0 0 0 0 0 0 0 0 0 0 0 0 0 0 0 0 0 0 0 0 0 0 0 0 0 0 0 0 0 0 0 0 0 0 0 0 0 0 0 0 0 0 0 0 0 0 0 0 0 0 0 0 0 0 0 0 0 0 0 0 0 0 0 0 0 0 0 0 0 0 0 0 0 0 0 0 0 0 0 0 0 0 0 0 0 0 0 0 0 0 0 0 0 0 0 0 0 0 0 0 0 0 0 0 0 0 0 0 0 0 0 0 0 0 0 0 0 0 0 0 0 0 0 0 0 ];
Traffic[1]class1Average hops = 1 (205596 samples)
traffic_manager/hop_stats_freq = [ 0 205596 0 0 0 0 0 0 0 0 0 0 0 0 0 0 0 0 0 0 ];
----------------------------END-of-Interconnect-DETAILS-------------------------

gpgpu_simulation_time = 0 days, 0 hrs, 1 min, 14 sec (74 sec)
gpgpu_simulation_rate = 289115 (inst/sec)
gpgpu_simulation_rate = 2004 (cycle/sec)

kernel '_Z17histo_main_kernelP6uchar4jjjjjPjS1_S1_' transfer to GPU hardware scheduler
kernel_name = _Z17histo_main_kernelP6uchar4jjjjjPjS1_S1_ 
kernel_launch_uid = 3 
gpu_sim_cycle = 470424
gpu_sim_insn = 157206464
gpu_ipc =     334.1804
gpu_tot_sim_cycle = 618725
gpu_tot_sim_insn = 178600998
gpu_tot_ipc =     288.6597
gpu_tot_issued_cta = 0
gpu_stall_dramfull = 654187
gpu_stall_icnt2sh    = 1641112
gpu_total_sim_rate=419251
Cache L1D_000:	Size = 16384 B (32 Set x 4-way x 128 byte line)
		Access = 135402, Miss = 34774 (0.257), PendingHit = 99569 (0.735)
Cache L1D_001:	Size = 16384 B (32 Set x 4-way x 128 byte line)
		Access = 135466, Miss = 34901 (0.258), PendingHit = 99918 (0.738)
Cache L1D_002:	Size = 16384 B (32 Set x 4-way x 128 byte line)
		Access = 133252, Miss = 32953 (0.247), PendingHit = 99598 (0.747)
Cache L1D_003:	Size = 16384 B (32 Set x 4-way x 128 byte line)
		Access = 132534, Miss = 32376 (0.244), PendingHit = 99497 (0.751)
Cache L1D_004:	Size = 16384 B (32 Set x 4-way x 128 byte line)
		Access = 132662, Miss = 32399 (0.244), PendingHit = 99572 (0.751)
Cache L1D_005:	Size = 16384 B (32 Set x 4-way x 128 byte line)
		Access = 135138, Miss = 34611 (0.256), PendingHit = 99649 (0.737)
Cache L1D_006:	Size = 16384 B (32 Set x 4-way x 128 byte line)
		Access = 135398, Miss = 34752 (0.257), PendingHit = 99635 (0.736)
Cache L1D_007:	Size = 16384 B (32 Set x 4-way x 128 byte line)
		Access = 135328, Miss = 34666 (0.256), PendingHit = 99447 (0.735)
Cache L1D_008:	Size = 16384 B (32 Set x 4-way x 128 byte line)
		Access = 134382, Miss = 34308 (0.255), PendingHit = 99321 (0.739)
Cache L1D_009:	Size = 16384 B (32 Set x 4-way x 128 byte line)
		Access = 132408, Miss = 32468 (0.245), PendingHit = 99304 (0.75)
Cache L1D_010:	Size = 16384 B (32 Set x 4-way x 128 byte line)
		Access = 133792, Miss = 33100 (0.247), PendingHit = 99358 (0.743)
Cache L1D_011:	Size = 16384 B (32 Set x 4-way x 128 byte line)
		Access = 132418, Miss = 32426 (0.245), PendingHit = 99497 (0.751)
Cache L1D_012:	Size = 16384 B (32 Set x 4-way x 128 byte line)
		Access = 133108, Miss = 32653 (0.245), PendingHit = 99731 (0.749)
Cache L1D_013:	Size = 16384 B (32 Set x 4-way x 128 byte line)
		Access = 134390, Miss = 34463 (0.256), PendingHit = 99289 (0.739)
total_dl1_misses=470850
total_dl1_accesses=1875678
total_dl1_miss_rate= 0.251029
Shader 0 dynamic_warp_id issue ditsribution:
dynamic_warp_id:
0, 1, 2, 3, 4, 5, 6, 7, 8, 9, 10, 11, 12, 13, 14, 15, 16, 17, 18, 19, 20, 21, 22, 23, 24, 25, 26, 27, 28, 29, 30, 31, 32, 33, 34, 35, 36, 37, 38, 39, 40, 41, 42, 43, 44, 45, 46, 47, 48, 49, 50, 51, 52, 53, 54, 55, 56, 57, 58, 59, 60, 61, 62, 63, 64, 65, 66, 67, 68, 69, 70, 71, 72, 73, 74, 75, 76, 77, 78, 79, 80, 81, 82, 83, 84, 85, 86, 87, 88, 89, 90, 91, 92, 93, 94, 95, 96, 97, 98, 99, 100, 101, 102, 103, 104, 105, 106, 107, 108, 109, 110, 111, 112, 113, 114, 115, 116, 117, 118, 119, 120, 121, 122, 123, 124, 125, 126, 127, 128, 129, 130, 131, 132, 133, 134, 135, 136, 137, 138, 139, 140, 141, 142, 143, 144, 145, 146, 147, 148, 149, 150, 151, 152, 153, 154, 155, 156, 157, 158, 159, 160, 161, 162, 163, 164, 165, 166, 167, 168, 169, 170, 171, 172, 173, 174, 175, 176, 177, 178, 179, 180, 181, 182, 183, 184, 185, 186, 187, 188, 189, 190, 191, 192, 193, 194, 195, 196, 197, 198, 199, 200, 201, 202, 203, 204, 205, 206, 207, 208, 209, 210, 211, 212, 213, 214, 215, 216, 217, 218, 219, 220, 221, 222, 223, 224, 225, 226, 227, 228, 229, 230, 231, 232, 233, 234, 235, 236, 237, 238, 239, 240, 241, 242, 243, 244, 245, 246, 247, 248, 249, 250, 251, 252, 253, 254, 255, 256, 257, 258, 259, 260, 261, 262, 263, 264, 265, 266, 267, 268, 269, 270, 271, 272, 273, 274, 275, 276, 277, 278, 279, 280, 281, 282, 283, 284, 285, 286, 287, 288, 289, 290, 291, 292, 293, 294, 295, 296, 297, 298, 299, 300, 301, 302, 303, 304, 305, 306, 307, 308, 309, 310, 311, 312, 313, 314, 315, 316, 317, 318, 319, 320, 321, 322, 323, 324, 325, 326, 327, 328, 329, 330, 331, 332, 333, 334, 335, 336, 337, 338, 339, 340, 341, 342, 343, 344, 345, 346, 347, 348, 349, 350, 351, 352, 353, 354, 355, 356, 357, 358, 359, 360, 361, 362, 363, 364, 365, 366, 367, 368, 369, 370, 371, 372, 373, 374, 375, 376, 377, 378, 379, 380, 381, 382, 383, 384, 385, 386, 387, 388, 389, 390, 391, 392, 393, 394, 395, 396, 397, 398, 399, 400, 401, 402, 403, 404, 405, 406, 407, 408, 409, 410, 411, 412, 413, 414, 415, 
distro:
269, 201, 188, 188, 175, 175, 175, 175, 162, 162, 162, 162, 162, 162, 162, 162, 269, 201, 188, 188, 175, 175, 175, 175, 162, 162, 162, 162, 162, 162, 162, 162, 269, 201, 188, 188, 175, 175, 175, 175, 162, 162, 162, 162, 162, 162, 162, 162, 269, 201, 188, 188, 175, 175, 175, 175, 162, 162, 162, 162, 162, 162, 162, 162, 269, 201, 188, 188, 175, 175, 175, 175, 162, 162, 162, 162, 162, 162, 162, 162, 269, 201, 188, 188, 175, 175, 175, 175, 162, 162, 162, 162, 162, 162, 162, 162, 507, 507, 507, 507, 507, 507, 507, 507, 507, 507, 507, 507, 507, 507, 507, 507, 507, 507, 507, 507, 507, 507, 507, 507, 507, 507, 507, 507, 507, 507, 507, 507, 507, 507, 507, 507, 507, 507, 507, 507, 507, 507, 507, 507, 507, 507, 507, 507, 507, 507, 507, 507, 507, 507, 507, 507, 507, 507, 507, 507, 507, 507, 507, 507, 507, 507, 507, 507, 507, 507, 507, 507, 507, 507, 507, 507, 507, 507, 507, 507, 507, 507, 507, 507, 507, 507, 507, 507, 507, 507, 507, 507, 507, 507, 507, 507, 2791, 2791, 2791, 2791, 2791, 2791, 2791, 2791, 2791, 2791, 2791, 2791, 2791, 2791, 2791, 2791, 1339, 1339, 1339, 1339, 1339, 1339, 1339, 1339, 1339, 1339, 1339, 1339, 1339, 1339, 1339, 1339, 1339, 1339, 1339, 1339, 1339, 1339, 1339, 1339, 1339, 1339, 1339, 1339, 1339, 1339, 1339, 1339, 1331, 1331, 1331, 1331, 1331, 1331, 1331, 1331, 1331, 1331, 1331, 1331, 1331, 1331, 1331, 1331, 1569, 1485, 1583, 1499, 1415, 1569, 1471, 1471, 1485, 1611, 1541, 1513, 1513, 1583, 1583, 1541, 3229, 3215, 3159, 3187, 3215, 3187, 3229, 3187, 3187, 3257, 3201, 3285, 3117, 3243, 3299, 3215, 3369, 3369, 3369, 3369, 3369, 3369, 3369, 3369, 3369, 3369, 3369, 3369, 3369, 3369, 3369, 3369, 3369, 3369, 3369, 3369, 3369, 3369, 3369, 3369, 3369, 3369, 3369, 3369, 3369, 3369, 3369, 3369, 3173, 3187, 3285, 3201, 3173, 3229, 3187, 3145, 3285, 3229, 3271, 3271, 3229, 3257, 3257, 3159, 3187, 3229, 3221, 3109, 3151, 3179, 3123, 3179, 3109, 3207, 3151, 3221, 3151, 3095, 3165, 3179, 1331, 1331, 1331, 1331, 1331, 1331, 1331, 1331, 1331, 1331, 1331, 1331, 1331, 1331, 1331, 1331, 1339, 1339, 1339, 1339, 1339, 1339, 1339, 1339, 1339, 1339, 1339, 1339, 1339, 1339, 1339, 1339, 1331, 1331, 1331, 1331, 1331, 1331, 1331, 1331, 1331, 1331, 1331, 1331, 1331, 1331, 1331, 1331, 1331, 1331, 1331, 1331, 1331, 1331, 1331, 1331, 1331, 1331, 1331, 1331, 1331, 1331, 1331, 1331, 
gpgpu_n_tot_thrd_icount = 225359360
gpgpu_n_tot_w_icount = 7042480
gpgpu_n_icache_hits = 4035118
gpgpu_n_icache_misses = 19467
gpgpu_n_l1dcache_read_hits = 11443
gpgpu_n_l1dcache_read_misses = 1864235
gpgpu_n_l1dcache_write_accesses = 154440
gpgpu_n_l1dcache_wirte_misses = 154440
gpgpu_n_tcache_hits = 0
gpgpu_n_tcache_misses = 0
gpgpu_n_ccache_hits = 592688
gpgpu_n_ccache_misses = 448
gpgpu_n_stall_shd_mem = 4338896
gpgpu_n_mem_read_local = 0
gpgpu_n_mem_write_local = 0
gpgpu_n_mem_read_global = 671682
gpgpu_n_mem_write_global = 154440
gpgpu_n_mem_texture = 0
gpgpu_n_mem_const = 14
gpgpu_n_load_insn  = 33768768
gpgpu_n_store_insn = 2071680
gpgpu_n_shmem_insn = 6867968
gpgpu_n_tex_insn = 0
gpgpu_n_const_mem_insn = 0
gpgpu_n_param_mem_insn = 37863916
gpgpu_n_shmem_bkconflict = 0
gpgpu_n_cache_bkconflict = 0
gpgpu_n_intrawarp_mshr_merge = 0
gpgpu_n_cmem_portconflict = 2359
gpgpu_stall_shd_mem[c_mem][bk_conf] = 2359
gpgpu_stall_shd_mem[c_mem][mshr_rc] = 0
gpgpu_stall_shd_mem[c_mem][icnt_rc] = 0
gpgpu_stall_shd_mem[t_mem][mshr_rc] = 0
gpgpu_stall_shd_mem[t_mem][icnt_rc] = 0
gpgpu_stall_shd_mem[s_mem][bk_conf] = 95112
gpgpu_stall_shd_mem[gl_mem][bk_conf] = 0
gpgpu_stall_shd_mem[gl_mem][coal_stall] = 4241425
gpgpu_stall_shd_mem[g_mem_ld][mshr_rc] = 0
gpgpu_stall_shd_mem[g_mem_ld][icnt_rc] = 0
gpgpu_stall_shd_mem[g_mem_ld][wb_icnt_rc] = 0
gpgpu_stall_shd_mem[g_mem_ld][wb_rsrv_fail] = 0
gpgpu_stall_shd_mem[g_mem_st][mshr_rc] = 0
gpgpu_stall_shd_mem[g_mem_st][icnt_rc] = 0
gpgpu_stall_shd_mem[g_mem_st][wb_icnt_rc] = 0
gpgpu_stall_shd_mem[g_mem_st][wb_rsrv_fail] = 0
gpgpu_stall_shd_mem[l_mem_ld][mshr_rc] = 0
gpgpu_stall_shd_mem[l_mem_ld][icnt_rc] = 0
gpgpu_stall_shd_mem[l_mem_ld][wb_icnt_rc] = 0
gpgpu_stall_shd_mem[l_mem_ld][wb_rsrv_fail] = 0
gpgpu_stall_shd_mem[l_mem_st][mshr_rc] = 0
gpgpu_stall_shd_mem[l_mem_st][icnt_rc] = 0
gpgpu_stall_shd_mem[l_mem_ld][wb_icnt_rc] = 0
gpgpu_stall_shd_mem[l_mem_ld][wb_rsrv_fail] = 0
gpu_reg_bank_conflict_stalls = 0
Warp Occupancy Distribution:
Stall:4490662	W0_Idle:1089668	W0_Scoreboard:3922058	W1:234474	W2:210470	W3:181146	W4:138692	W5:82446	W6:50806	W7:38790	W8:43856	W9:57666	W10:76300	W11:92400	W12:104846	W13:108710	W14:108192	W15:93310	W16:76042	W17:54698	W18:68543	W19:20720	W20:10248	W21:4886	W22:1792	W23:658	W24:196	W25:56	W26:0	W27:0	W28:0	W29:0	W30:0	W31:0	W32:5182537
maxmrqlatency = 350 
maxdqlatency = 0 
maxmflatency = 1087 
averagemflatency = 268 
max_icnt2mem_latency = 3453 
max_icnt2sh_latency = 148300 
mrq_lat_table:284235 	17686 	20560 	43668 	64637 	69569 	40775 	8342 	117 	0 	0 	0 	0 	0 	0 	0 	0 	0 	0 	0 	0 	0 	0 	0 	0 	0 	0 	0 	0 	0 	0 	0 	
dq_lat_table:0 	0 	0 	0 	0 	0 	0 	0 	0 	0 	0 	0 	0 	0 	0 	0 	0 	0 	0 	0 	0 	0 	0 	0 	0 	0 	0 	0 	0 	0 	0 	0 	
mf_lat_table:0 	0 	0 	0 	0 	0 	75217 	420064 	277323 	53529 	3 	0 	0 	0 	0 	0 	0 	0 	0 	0 	0 	0 	0 	0 	0 	0 	0 	0 	0 	0 	0 	0 	
icnt2mem_lat_table:291 	274927 	31360 	84239 	130893 	108138 	88903 	71714 	36394 	322 	76 	7 	0 	0 	0 	0 	0 	0 	0 	0 	0 	0 	0 	0 	
icnt2sh_lat_table:107 	170209 	177286 	313607 	10440 	47 	0 	0 	0 	0 	0 	0 	0 	118 	23231 	37387 	76298 	17406 	0 	0 	0 	0 	0 	0 	
mf_lat_pw_table:0 	0 	0 	0 	0 	0 	26 	671 	477 	54 	0 	0 	0 	0 	0 	0 	0 	0 	0 	0 	0 	0 	0 	0 	0 	0 	0 	0 	0 	0 	0 	0 	
maximum concurrent accesses to same row:
dram[0]:        32        32        32        32        32        42        32        47        32        32        32        32        32        37        32        32 
dram[1]:        32        32        32        32        36        34        32        55        32        32        32        32        32        32        32        34 
dram[2]:        32        32        32        32        32        39        32        55        32        33        32        32        32        32        32        35 
dram[3]:        40        32        32        32        32        43        32        57        32        32        32        32        32        32        32        32 
dram[4]:        34        32        32        32        32        35        32        54        32        34        32        40        32        32        32        32 
maximum service time to same row:
dram[0]:     24425     24466     24352     20641     20412     20489     18235     20900     20820     21007     21123     20922     21035     21192     21221     24208 
dram[1]:     24373     24695     24445     20805     20553     20580     18217     21030     20930     21000     21002     20795     21023     21309     21414     24267 
dram[2]:     24350     24480     24375     20686     20797     20497     18205     21112     20764     20853     21156     21044     21089     21223     21327     24193 
dram[3]:     24346     24602     24473     20705     20855     20541     18200     21124     20928     21040     21118     20932     21033     21179     21456     24265 
dram[4]:     24465     24441     24309     20646     20831     20518     18222     21200     20826     20922     21062     21011     21093     21191     21403     24249 
average row accesses per activate:
dram[0]:  4.135849  4.209244  4.160579  3.964966  4.189511  4.245813  4.181164  4.198552  4.126853  4.187387  4.082616  4.217904  3.873899  4.187011  4.059891  4.074720 
dram[1]:  4.086849  4.095238  4.085449  4.037712  4.108582  4.182086  4.228017  4.050146  4.160501  4.045824  4.179623  4.184579  3.941573  4.121590  4.042042  4.093400 
dram[2]:  4.174161  4.188199  4.139010  4.129961  4.261185  4.313107  4.292308  4.090641  4.316770  4.111768  4.174398  4.233176  4.020548  4.171856  4.055957  4.112782 
dram[3]:  4.139359  4.130301  4.105882  4.091025  4.299756  4.348253  4.257808  4.254434  4.222087  4.199158  4.151373  4.226359  4.042651  4.297164  3.928363  4.089152 
dram[4]:  4.262444  4.206637  4.202926  4.158199  4.222289  4.471591  4.231189  4.321095  4.179042  4.248322  4.203420  4.205986  4.099709  4.057043  4.099088  4.179618 
average row locality = 549589/132210 = 4.156940
number of total memory accesses made:
dram[0]:         0         0         0         0         0         0         0         0         0         0         0         0         0         0         0         0 
dram[1]:         0         0         0         0         0         0         0         0         0         0         0         0         0         0         0         0 
dram[2]:         0         0         0         0         0         0         0         0         0         0         0         0         0         0         0         0 
dram[3]:         0         0         0         0         0         0         0         0         0         0         0         0         0         0         0         0 
dram[4]:         0         0         0         0         0         0         0         0         0         0         0         0         0         0         0         0 
total accesses: 0
min_bank_accesses = 0!
min_chip_accesses = 0!
number of total read accesses:
dram[0]:      4900      4983      4921      4844      5210      5252      5197      5212      5203      5182      5268      5284      5237      5183      5005      4899 
dram[1]:      4911      4984      4930      4842      5218      5248      5196      5200      5205      5179      5239      5290      5219      5171      5003      4907 
dram[2]:      4914      5005      4930      4855      5213      5247      5193      5198      5186      5169      5246      5290      5238      5187      5009      4913 
dram[3]:      4920      4982      4936      4832      5219      5234      5179      5197      5187      5182      5251      5286      5231      5198      5020      4903 
dram[4]:      4910      4976      4924      4850      5214      5231      5192      5193      5206      5176      5286      5289      5240      5193      5008      4902 
total reads: 408862
bank skew: 5290/4832 = 1.09
chip skew: 81793/81742 = 1.00
number of total write accesses:
dram[0]:      1676      1756      1686      1607      1820      1847      1773      1745      1759      1790      1848      1878      1798      1780      1706      1645 
dram[1]:      1677      1724      1668      1582      1820      1849      1776      1746      1768      1796      1858      1874      1797      1778      1727      1667 
[...]
maxmrqlatency = 655 
maxdqlatency = 0 
maxmflatency = 1287 
averagemflatency = 280 
max_icnt2mem_latency = 3453 
max_icnt2sh_latency = 1343134 
mrq_lat_table:618779 	39784 	47590 	104420 	159109 	182537 	110729 	22146 	518 	4 	0 	0 	0 	0 	0 	0 	0 	0 	0 	0 	0 	0 	0 	0 	0 	0 	0 	0 	0 	0 	0 	0 	
dq_lat_table:0 	0 	0 	0 	0 	0 	0 	0 	0 	0 	0 	0 	0 	0 	0 	0 	0 	0 	0 	0 	0 	0 	0 	0 	0 	0 	0 	0 	0 	0 	0 	0 	
mf_lat_table:0 	0 	0 	0 	0 	0 	143540 	868368 	668993 	134696 	38 	0 	0 	0 	0 	0 	0 	0 	0 	0 	0 	0 	0 	0 	0 	0 	0 	0 	0 	0 	0 	0 	
icnt2mem_lat_table:594 	551624 	65364 	174959 	272210 	258033 	214125 	185406 	94491 	1240 	152 	13 	0 	0 	0 	0 	0 	0 	0 	0 	0 	0 	0 	0 	
icnt2sh_lat_table:199 	371810 	357909 	623453 	22195 	117 	0 	0 	0 	0 	0 	0 	0 	118 	23231 	37387 	76298 	17406 	0 	219976 	65536 	0 	0 	0 	
mf_lat_pw_table:0 	0 	0 	0 	0 	0 	47 	1355 	1116 	148 	0 	0 	0 	0 	0 	0 	0 	0 	0 	0 	0 	0 	0 	0 	0 	0 	0 	0 	0 	0 	0 	0 	
maximum concurrent accesses to same row:
dram[0]:        75        41        42        80        80        65        55        80        80        55        45        80        70        50        32        40 
dram[1]:        60        41        39        80        65        80        60        80        70        50        48        80        75        45        35        65 
dram[2]:        70        39        55        80        70        60        60        80        80        45        45        80        60        40        40        40 
dram[3]:        60        47        45        80        65        80        59        80        80        50        45        80        55        50        35        70 
dram[4]:        52        52        40        80        55        80        65        80        80        55        45        80        70        51        32        55 
maximum service time to same row:
dram[0]:     25253     25221     25080     20641     20412     20489     18235     21882     21723     21909     21862     21669     21865     21932     22141     25036 
dram[1]:     24373     25192     25015     20805     20553     20580     18217     22008     21678     21765     21781     21614     21841     22063     22221     24898 
dram[2]:     25235     25453     25366     20686     20797     20497     18206     21925     21644     21760     21953     21837     21728     22003     22173     24987 
dram[3]:     25034     25540     25404     20705     20855     20541     18200     22015     21783     21825     21825     21740     21730     22075     22278     25082 
dram[4]:     25113     25453     25239     20646     20831     20518     18222     21991     21660     21693     21822     21810     21911     21870     22164     25171 
average row accesses per activate:
dram[0]:  4.055775  4.094002  4.001032  4.009811  4.146670  4.028051  4.024692  4.120121  4.118505  3.994601  4.006946  4.069837  3.907217  3.914945  4.003792  4.020026 
dram[1]:  4.059209  4.073461  4.029076  4.029129  4.068695  4.044581  4.076366  4.020418  4.215334  3.992880  4.068279  4.098602  3.895014  3.921181  3.981170  4.076802 
dram[2]:  4.096159  4.113050  4.069859  4.107758  4.150025  4.036673  4.102441  4.118789  4.312029  4.015814  4.001242  4.158706  4.006639  4.033784  3.974481  4.073607 
dram[3]:  4.089371  4.070284  4.042338  4.106045  4.189729  4.115655  4.077636  4.187452  4.235414  4.110578  4.012699  4.087032  3.996070  4.095456  3.936323  4.076133 
dram[4]:  4.086876  4.110792  4.062026  4.175966  4.170015  4.160905  4.060727  4.163993  4.181475  4.074418  4.090909  4.085217  3.984131  3.964321  4.012121  4.087761 
average row locality = 1285616/316105 = 4.067054
number of total memory accesses made:
dram[0]:         0         0         0         0         0         0         0         0         0         0         0         0         0         0         0         0 
dram[1]:         0         0         0         0         0         0         0         0         0         0         0         0         0         0         0         0 
dram[2]:         0         0         0         0         0         0         0         0         0         0         0         0         0         0         0         0 
dram[3]:         0         0         0         0         0         0         0         0         0         0         0         0         0         0         0         0 
dram[4]:         0         0         0         0         0         0         0         0         0         0         0         0         0         0         0         0 
total accesses: 0
min_bank_accesses = 0!
min_chip_accesses = 0!
number of total read accesses:
dram[0]:     10613     10778     10688     10719     11435     11364     11218     11260     11366     11205     11223     11336     11306     11163     10927     10662 
dram[1]:     10643     10800     10712     10712     11441     11370     11215     11250     11372     11198     11190     11341     11265     11150     10927     10682 
dram[2]:     10629     10831     10703     10731     11437     11361     11222     11228     11343     11176     11194     11337     11291     11170     10943     10704 
dram[3]:     10645     10798     10715     10706     11404     11361     11183     11234     11335     11194     11206     11333     11302     11180     10966     10685 
dram[4]:     10650     10770     10683     10740     11418     11341     11225     11247     11356     11194     11242     11344     11324     11182     10940     10682 
total reads: 886416
bank skew: 11441/10613 = 1.08
chip skew: 177338/177247 = 1.00
number of total write accesses:
dram[0]:      4803      4988      4820      4811      5189      5006      5082      5101      5281      5073      4929      5098      4991      4947      4912      4795 
dram[1]:      4851      4948      4808      4780      5143      5051      5119      5093      5287      5065      4957      5078      4985      4919      4930      4818 
dram[2]:      4834      4959      4852      4784      5188      5040      5077      5103      5254      5076      4919      5119      5004      4949      4943      4792 
dram[3]:      4821      4954      4848      4782      5158      5044      5099      5118      5289      5088      4909      5056      4966      4952      4921      4788 
dram[4]:      4827      4962      4838      4828      5187      5028      5091      5105      5257      5067      4913      5099      4995      4929      4948      4782 
total reads: 399200
bank skew: 5289/4780 = 1.11
chip skew: 79893/79793 = 1.00
average mf latency per bank:
dram[0]:        382       378       386       420       412       413       420       411       401       391       378       378       384       383       379       386
dram[1]:        374       373       376       415       408       405       411       405       397       382       369       371       380       378       373       379
dram[2]:        384       382       387       425       416       416       419       415       405       392       379       382       386       385       382       388
dram[3]:        388       388       394       434       424       420       426       419       411       397       388       390       396       392       390       397
dram[4]:        382       382       390       426       418       418       422       416       407       392       379       383       385       384       384       389
maximum mf latency per bank:
dram[0]:        946      1079       923       937       912       949      1013       969      1019       901       878       912       947       925       923       898
dram[1]:        960      1033      1003       972      1068       997      1087       989       989       885       903       966       956       914       926      1152
dram[2]:       1063      1009       945      1013       992      1072      1071       947      1003       986       942      1045       961       924      1029       956
dram[3]:        998       929       944       921      1010       927       981      1287      1239       930       902       981      1026      1040       964      1019
dram[4]:       1037       996       925       944       921      1125      1042      1095      1158       962       977      1017       905       921       962       926

Number of Memory Banks Accessed per Memory Operation per Warp (from 0):
0	0	0	0	0	0	0	0	0	0	0	0	0	0	0	0	0	0	0	0	0	0	0	0	0	0	0	0	0	0	0	0	0	0	0	0	0	0	0	0	0	0	0	0	0	0	0	0	0	0	0	0	0	0	0	0	0	0	0	0	0	0	0	0	0	0	0	0	0	0	0	0	0	0	0	0	0	0	0	0	
Average # of Memory Banks Accessed per Memory Operation per Warp=-nan

position of mrq chosen
0	0	0	0	0	0	0	0	0	0	0	0	0	0	0	0	

average position of mrq chosen = -nan
gpgpu_l2_write_miss = 0
gpgpu_l2_write_access = 0
gpgpu_l2_read_miss = 0
gpgpu_l2_read_access = 0
Cache L2_bank_000:
MSHR contents

DRAM[0]: 16 bks, busW=4 BL=8 CL=12, tRRD=2 tCCD=6, tRCD=12 tRAS=28 tRP=12 tRC=40
n_cmd=2417633 n_nop=1844987 n_act=63769 n_pre=63753 n_req=257089 n_rd=354526 n_write=90598 bw_util=0.3682
n_activity=1750743 dram_eff=0.5085
bk0: 21226a 2147480i bk1: 21556a 2148213i bk2: 21376a 2143040i bk3: 21438a 2146228i bk4: 22870a 2155160i bk5: 22728a 2145321i bk6: 22436a 2143774i bk7: 22520a 2140438i bk8: 22732a 2136216i bk9: 22410a 2125605i bk10: 22446a 2123456i bk11: 22672a 2096937i bk12: 22612a 2068992i bk13: 22326a 2018060i bk14: 21854a 1903044i bk15: 21324a 1608459i 
dram_util_bins: 0 0 0 0 0 0 0 0 0 0
dram_eff_bins: 0 0 0 0 0 0 0 0 0 0
mrqq: max=16 avg=3.94363
Cache L2_bank_001:
MSHR contents

DRAM[1]: 16 bks, busW=4 BL=8 CL=12, tRRD=2 tCCD=6, tRCD=12 tRAS=28 tRP=12 tRC=40
n_cmd=2417633 n_nop=1845225 n_act=63644 n_pre=63628 n_req=257100 n_rd=354536 n_write=90600 bw_util=0.3682
n_activity=1768550 dram_eff=0.5034
bk0: 21286a 2143998i bk1: 21600a 2147073i bk2: 21424a 2143097i bk3: 21424a 2146424i bk4: 22882a 2155836i bk5: 22740a 2147763i bk6: 22430a 2144616i bk7: 22500a 2141661i bk8: 22744a 2134576i bk9: 22396a 2124014i bk10: 22380a 2123331i bk11: 22682a 2096535i bk12: 22530a 2069458i bk13: 22300a 2022052i bk14: 21854a 1904209i bk15: 21364a 1606616i 
dram_util_bins: 0 0 0 0 0 0 0 0 0 0
dram_eff_bins: 0 0 0 0 0 0 0 0 0 0
mrqq: max=16 avg=3.8508
Cache L2_bank_002:
MSHR contents

DRAM[2]: 16 bks, busW=4 BL=8 CL=12, tRRD=2 tCCD=6, tRCD=12 tRAS=28 tRP=12 tRC=40
n_cmd=2417633 n_nop=1846494 n_act=62965 n_pre=62949 n_req=257193 n_rd=354600 n_write=90625 bw_util=0.3683
n_activity=1748663 dram_eff=0.5092
bk0: 21258a 2149080i bk1: 21662a 2148930i bk2: 21406a 2142546i bk3: 21462a 2146759i bk4: 22874a 2157603i bk5: 22722a 2146416i bk6: 22444a 2145767i bk7: 22456a 2143783i bk8: 22686a 2136884i bk9: 22352a 2124592i bk10: 22388a 2121233i bk11: 22674a 2095868i bk12: 22582a 2069365i bk13: 22340a 2017450i bk14: 21886a 1906509i bk15: 21408a 1615280i 
dram_util_bins: 0 0 0 0 0 0 0 0 0 0
dram_eff_bins: 0 0 0 0 0 0 0 0 0 0
mrqq: max=16 avg=3.95846
Cache L2_bank_003:
MSHR contents

DRAM[3]: 16 bks, busW=4 BL=8 CL=12, tRRD=2 tCCD=6, tRCD=12 tRAS=28 tRP=12 tRC=40
n_cmd=2417633 n_nop=1846812 n_act=62865 n_pre=62849 n_req=257040 n_rd=354494 n_write=90613 bw_util=0.3682
n_activity=1727164 dram_eff=0.5154
bk0: 21290a 2146137i bk1: 21596a 2146497i bk2: 21430a 2143758i bk3: 21412a 2147245i bk4: 22808a 2156007i bk5: 22722a 2146405i bk6: 22366a 2146367i bk7: 22468a 2142551i bk8: 22670a 2134918i bk9: 22388a 2122636i bk10: 22412a 2121006i bk11: 22666a 2098033i bk12: 22604a 2067274i bk13: 22360a 2014121i bk14: 21932a 1903558i bk15: 21370a 1618470i 
dram_util_bins: 0 0 0 0 0 0 0 0 0 0
dram_eff_bins: 0 0 0 0 0 0 0 0 0 0
mrqq: max=16 avg=4.00933
Cache L2_bank_004:
MSHR contents

DRAM[4]: 16 bks, busW=4 BL=8 CL=12, tRRD=2 tCCD=6, tRCD=12 tRAS=28 tRP=12 tRC=40
n_cmd=2417633 n_nop=1846606 n_act=62865 n_pre=62849 n_req=257194 n_rd=354676 n_write=90637 bw_util=0.3684
n_activity=1751724 dram_eff=0.5084
bk0: 21300a 2146136i bk1: 21540a 2144230i bk2: 21366a 2142836i bk3: 21480a 2146009i bk4: 22836a 2153836i bk5: 22682a 2144983i bk6: 22450a 2146394i bk7: 22494a 2143307i bk8: 22712a 2134717i bk9: 22388a 2124592i bk10: 22484a 2121120i bk11: 22688a 2097941i bk12: 22648a 2069258i bk13: 22364a 2017359i bk14: 21880a 1906142i bk15: 21364a 1617046i 
dram_util_bins: 0 0 0 0 0 0 0 0 0 0
dram_eff_bins: 0 0 0 0 0 0 0 0 0 0
mrqq: max=16 avg=3.92998
Cache L2_bank_000:	Size = 131072 B (64 Set x 16-way x 128 byte line)
		Access = 363587, Miss = 177263 (0.488), PendingHit = 69609 (0.191)
Cache L2_bank_001:	Size = 131072 B (64 Set x 16-way x 128 byte line)
		Access = 363577, Miss = 177268 (0.488), PendingHit = 69803 (0.192)
Cache L2_bank_002:	Size = 131072 B (64 Set x 16-way x 128 byte line)
		Access = 363413, Miss = 177300 (0.488), PendingHit = 69569 (0.191)
Cache L2_bank_003:	Size = 131072 B (64 Set x 16-way x 128 byte line)
		Access = 363885, Miss = 177247 (0.487), PendingHit = 69288 (0.19)
Cache L2_bank_004:	Size = 131072 B (64 Set x 16-way x 128 byte line)
		Access = 363749, Miss = 177338 (0.488), PendingHit = 69444 (0.191)
L2 Cache Total Miss Rate = 0.488

icnt_total_pkts_mem_to_simt=7330451
icnt_total_pkts_simt_to_mem=2338035

LD_mem_lat_dist  0 0 0 0 0 0 0 0 0 0 0 0 0 0 0 0 0 0 0 0 0 0 0 0 0 0 0
ST_mem_lat_dist  0 0 0 0 0 0 0 0 0 0 0 0 0 0 0 0 0 0 0 0 0 0 0 0 0 0 0
Traffic 0 Stat
%=================================
% Average latency = 114.994
% Accepted packets = 0 at node 0 (avg = 0.0802933)
lat(15) = 114.994;
thru(15,:) = [ 0 0 0 0 0 0 0 0 0 0 0 0 0 0 0.369232 0.369271 0.369271 0.369427 0.369544 0 0 0 0 ];
% latency change    = 0.885566
% throughput change = 0.780032
Traffic 1 Stat
%=================================
% Average latency = 4.00533
% Accepted packets = 0 at node 14 (avg = 0.066609)
lat(16) = 4.00533;
thru(16,:) = [ 0.0753585 0.140289 0.0753585 0.143098 0.143098 0.0753585 0.107824 0.107824 0.110633 0.0753585 0.078168 0.113443 0.143098 0.143098 0 0 0 0 0 0 0 0 0 ];
% latency change    = 27.7101
% throughput change = 0.205443
----------------------------Interconnect-DETAILS---------------------------------=======Traffic[0]class0 ======
Traffic[0]class0Overall average latency = 87.13 (8 samples)
Traffic[0]class0Overall average accepted rate = 0.0538288 (8 samples)
Traffic[0]class0Overall min accepted rate = 0 (8 samples)
traffic_manager/latency_stat_0_freq = [ 0 502 842 248 253 254 284 141 174 167 206 128 163 163 266 407 1660 1729 847 938 880 846 985 955 999 920 970 942 930 940 939 917 874 875 898 892 881 844 825 807 810 779 809 685 790 814 751 759 691 708 704 665 642 713 617 633 629 590 580 587 516 568 575 537 564 548 512 522 535 519 482 485 410 387 427 422 382 369 419 359 372 350 364 342 321 316 343 276 300 291 267 280 264 259 247 223 265 234 234 264 245 225 227 224 196 198 195 194 182 174 177 150 156 198 157 130 166 153 171 145 127 134 128 120 130 130 134 156 129 117 130 120 123 133 116 117 118 99 94 128 107 110 101 115 105 87 83 87 94 108 84 111 78 93 80 82 95 84 103 114 105 97 82 81 78 87 95 84 85 80 86 83 95 88 75 84 111 96 83 106 80 77 80 86 76 78 75 83 77 80 88 77 83 84 86 72 70 78 106 70 112 86 83 67 72 81 80 70 70 72 72 57 67 65 75 80 66 71 69 68 73 62 74 58 59 70 77 87 66 84 66 72 68 61 68 46 69 61 76 57 59 62 71 69 73 83 83 64 75 80 67 89 67 65 73 67 52 58 53 71 57 62 70 58 68 73 54 63 54 63 75 70 62 48 59 56 76 61 71 61 71 63 65 59 51 78 58 50 38 55 53 60 63 55 59 58 49 58 67 64 53 54 50 51 41 58 39 54 58 54 42 42 59 46 57 48 50 47 55 41 47 39 58 53 39 49 56 49 42 36 43 28 57 40 42 37 46 44 46 45 41 58 38 38 38 38 36 37 39 43 50 44 41 45 38 34 50 45 37 53 36 33 46 41 54 33 54 46 38 39 47 38 43 43 50 37 31 32 36 42 34 36 33 27 28 34 32 30 22 23 28 24 27 38 24 32 37 27 41 30 26 29 29 24 31 34 27 33 32 27 34 30 39 31 38 25 37 28 32 28 30 31 30 28 27 21 26 37 26 38 33 28 39 19 21 30 34 27 25 30 33 23 22 28 25 28 24 33 26 45 28 22 22 30 22 23 35 20 19 21 18 23 24 15 16 25 29 19 25 25 21 21 24 27 20 35 27 27 25 21 34 16 22 24 26 20 21 23 18 24 20 13 24 21 27 23 23 20 17 24 20 23 26 14 12 15 16 17 17 15 22 12 21 12 22 12 19 18 19 20 11 15 18 15 16 13 22 18 23 19 15 16 21 11 14 20 15 14 15 12 16 22 17 14 12 15 14 11 11 11 18 10 13 24 10 8 19 9 8 13 18 13 11 16 9 8 11 7 7 19 12 11 10 13 14 3 9 12 8 12 5 13 7 9 8 14 12 7 10 17 14 8 11 16 14 9 11 5 9 12 7 6 6 7 9 14 4 4 7 11 8 5 6 5 8 6 7 10 7 3 5 6 6 5 5 8 3 10 7 4 3 10 8 3 5 4 5 5 3 2 2 6 6 7 8 5 8 7 4 5 1 4 4 6 3 1 1 2 6 5 5 3 7 5 3 4 2 2 4 7 4 3 3 4 4 5 7 7 4 4 4 3 3 3 2 2 6 3 3 3 3 4 2 3 3 5 3 1 6 1 5 3 4 4 4 1 6 2 5 2 3 1 2 3 4 3 1 3 5 2 1 1 3 2 2 4 2 2 5 1 3 1 1 3 3 1 5 1 3 2 3 1 4 3 2 0 3 2 3 0 4 1 0 1 3 1 4 2 2 0 2 2 2 3 3 0 1 2 4 0 3 1 1 0 1 2 3 4 1 1 3 2 1 0 2 2 1 0 0 2 1 0 0 2 2 1 1 0 2 2 0 0 1 0 0 1 1 1 0 1 1 0 2 1 1 0 0 0 1 0 0 0 2 2 0 0 2 0 1 2 0 1 2 1 0 0 0 1 0 0 2 0 1 1 0 2 2 0 1 0 1 1 1 0 2 1 1 0 0 1 1 1 0 0 2 0 0 0 0 0 0 0 0 0 0 0 0 0 0 0 0 0 0 0 0 1 0 0 0 1 0 0 0 0 0 0 0 0 0 0 0 1 0 0 0 0 0 1 0 0 0 0 0 0 0 0 0 0 0 0 0 0 0 0 0 0 0 0 0 0 0 0 0 0 0 0 0 0 0 1 1 0 1 0 0 0 0 1 0 0 0 0 0 0 0 0 0 0 0 0 0 1 0 0 0 0 0 1 0 0 0 0 0 0 0 1 0 0 0 0 0 0 0 0 0 0 0 0 0 0 0 0 0 0 0 0 0 0 0 3 ];
Traffic[0]class1Average hops = 1 (1818211 samples)
traffic_manager/hop_stats_freq = [ 0 1818211 0 0 0 0 0 0 0 0 0 0 0 0 0 0 0 0 0 0 ];
=======Traffic[1]class0 ======
Traffic[1]class0Overall average latency = 8.66552 (8 samples)
Traffic[1]class0Overall average accepted rate = 0.0829245 (8 samples)
Traffic[1]class0Overall min accepted rate = 0 (8 samples)
traffic_manager/latency_stat_0_freq = [ 0 39923 4718 2824 3571 13367 3571 2400 3099 2808 1616 1023 799 664 652 429 709 316 204 209 183 168 102 69 68 54 39 35 44 24 23 29 23 16 11 4 14 8 4 3 2 1 2 1 0 1 1 2 2 1 0 2 0 0 0 0 0 0 0 0 0 0 0 0 0 0 0 0 0 0 0 0 0 0 0 0 0 0 0 0 0 0 0 0 0 0 0 0 0 0 0 0 0 0 0 0 0 0 0 0 0 0 0 0 0 0 0 0 0 0 0 0 0 0 0 0 0 0 0 0 0 0 0 0 0 0 0 0 0 0 0 0 0 0 0 0 0 0 0 0 0 0 0 0 0 0 0 0 0 0 0 0 0 0 0 0 0 0 0 0 0 0 0 0 0 0 0 0 0 0 0 0 0 0 0 0 0 0 0 0 0 0 0 0 0 0 0 0 0 0 0 0 0 0 0 0 0 0 0 0 0 0 0 0 0 0 0 0 0 0 0 0 0 0 0 0 0 0 0 0 0 0 0 0 0 0 0 0 0 0 0 0 0 0 0 0 0 0 0 0 0 0 0 0 0 0 0 0 0 0 0 0 0 0 0 0 0 0 0 0 0 0 0 0 0 0 0 0 0 0 0 0 0 0 0 0 0 0 0 0 0 0 0 0 0 0 0 0 0 0 0 0 0 0 0 0 0 0 0 0 0 0 0 0 0 0 0 0 0 0 0 0 0 0 0 0 0 0 0 0 0 0 0 0 0 0 0 0 0 0 0 0 0 0 0 0 0 0 0 0 0 0 0 0 0 0 0 0 0 0 0 0 0 0 0 0 0 0 0 0 0 0 0 0 0 0 0 0 0 0 0 0 0 0 0 0 0 0 0 0 0 0 0 0 0 0 0 0 0 0 0 0 0 0 0 0 0 0 0 0 0 0 0 0 0 0 0 0 0 0 0 0 0 0 0 0 0 0 0 0 0 0 0 0 0 0 0 0 0 0 0 0 0 0 0 0 0 0 0 0 0 0 0 0 0 0 0 0 0 0 0 0 0 0 0 0 0 0 0 0 0 0 0 0 0 0 0 0 0 0 0 0 0 0 0 0 0 0 0 0 0 0 0 0 0 0 0 0 0 0 0 0 0 0 0 0 0 0 0 0 0 0 0 0 0 0 0 0 0 0 0 0 0 0 0 0 0 0 0 0 0 0 0 0 0 0 0 0 0 0 0 0 0 0 0 0 0 0 0 0 0 0 0 0 0 0 0 0 0 0 0 0 0 0 0 0 0 0 0 0 0 0 0 0 0 0 0 0 0 0 0 0 0 0 0 0 0 0 0 0 0 0 0 0 0 0 0 0 0 0 0 0 0 0 0 0 0 0 0 0 0 0 0 0 0 0 0 0 0 0 0 0 0 0 0 0 0 0 0 0 0 0 0 0 0 0 0 0 0 0 0 0 0 0 0 0 0 0 0 0 0 0 0 0 0 0 0 0 0 0 0 0 0 0 0 0 0 0 0 0 0 0 0 0 0 0 0 0 0 0 0 0 0 0 0 0 0 0 0 0 0 0 0 0 0 0 0 0 0 0 0 0 0 0 0 0 0 0 0 0 0 0 0 0 0 0 0 0 0 0 0 0 0 0 0 0 0 0 0 0 0 0 0 0 0 0 0 0 0 0 0 0 0 0 0 0 0 0 0 0 0 0 0 0 0 0 0 0 0 0 0 0 0 0 0 0 0 0 0 0 0 0 0 0 0 0 0 0 0 0 0 0 0 0 0 0 0 0 0 0 0 0 0 0 0 0 0 0 0 0 0 0 0 0 0 0 0 0 0 0 0 0 0 0 0 0 0 0 0 0 0 0 0 0 0 0 0 0 0 0 0 0 0 0 0 0 0 0 0 0 0 0 0 0 0 0 0 0 0 0 0 0 0 0 0 0 0 0 0 0 0 0 0 0 0 0 0 0 0 0 0 0 0 0 0 0 0 0 0 0 0 0 0 0 0 0 0 0 0 0 0 0 0 0 0 0 0 0 0 0 0 0 0 0 0 0 0 0 0 0 0 0 0 0 0 0 0 0 0 0 0 0 0 0 0 0 0 0 0 0 0 0 0 0 0 0 0 0 0 0 0 0 0 0 0 0 0 0 0 0 0 0 0 0 0 0 0 0 0 0 0 0 0 0 0 0 0 0 0 0 0 0 0 0 0 0 0 0 0 0 0 0 0 0 0 0 0 0 0 0 0 0 0 0 0 0 0 0 0 0 0 0 0 0 0 0 0 0 0 0 ];
Traffic[1]class1Average hops = 1 (1818211 samples)
traffic_manager/hop_stats_freq = [ 0 1818211 0 0 0 0 0 0 0 0 0 0 0 0 0 0 0 0 0 0 ];
----------------------------END-of-Interconnect-DETAILS-------------------------

gpgpu_simulation_time = 0 days, 0 hrs, 14 min, 39 sec (879 sec)
gpgpu_simulation_rate = 421743 (inst/sec)
gpgpu_simulation_rate = 1528 (cycle/sec)

