

        *** GPGPU-Sim Simulator Version 3.2.1  [build 15629] ***


               1=functional simulation only, 0=detailed performance simulator)
GPGPU-Sim: Configuration options:

-network_mode                           1 # Interconnection network mode
-inter_config_file   config_fermi_islip.icnt # Interconnection network config file
-gpgpu_ptx_use_cuobjdump                    1 # Use cuobjdump to extract ptx and sass from binaries
-gpgpu_experimental_lib_support                    0 # Try to extract code from cuda libraries [Broken because of unknown cudaGetExportTable]
-gpgpu_ptx_convert_to_ptxplus                    0 # Convert SASS (native ISA) to ptxplus and run ptxplus
-gpgpu_ptx_force_max_capability                   20 # Force maximum compute capability
-gpgpu_ptx_inst_debug_to_file                    0 # Dump executed instructions' debug information to file
-gpgpu_ptx_inst_debug_file       inst_debug.txt # Executed instructions' debug output file
-gpgpu_ptx_inst_debug_thread_uid                    1 # Thread UID for executed instructions' debug output
-gpgpu_simd_model                       1 # 1 = post-dominator
-gpgpu_shader_core_pipeline              1536:32 # shader core pipeline config, i.e., {<nthread>:<warpsize>}
-gpgpu_tex_cache:l1  4:128:24,L:R:m:N,F:128:4,128:2 # per-shader L1 texture cache  (READ-ONLY) config  {<nsets>:<bsize>:<assoc>,<rep>:<wr>:<alloc>:<wr_alloc>,<mshr>:<N>:<merge>,<mq>:<rf>}
-gpgpu_const_cache:l1 64:64:2,L:R:f:N,A:2:32,4 # per-shader L1 constant memory cache  (READ-ONLY) config  {<nsets>:<bsize>:<assoc>,<rep>:<wr>:<alloc>:<wr_alloc>,<mshr>:<N>:<merge>,<mq>} 
-gpgpu_cache:il1     4:128:4,L:R:f:N,A:2:32,4 # shader L1 instruction cache config  {<nsets>:<bsize>:<assoc>,<rep>:<wr>:<alloc>:<wr_alloc>,<mshr>:<N>:<merge>,<mq>} 
-gpgpu_cache:dl1     32:128:4,L:L:m:N,A:32:8,8 # per-shader L1 data cache config  {<nsets>:<bsize>:<assoc>,<rep>:<wr>:<alloc>:<wr_alloc>,<mshr>:<N>:<merge>,<mq> | none}
-gpgpu_perfect_mem                      0 # enable perfect memory mode (no cache miss)
-n_regfile_gating_group                    4 # group of lanes that should be read/written together)
-gpgpu_clock_gated_reg_file                    0 # enable clock gated reg file for power calculations
-gpgpu_clock_gated_lanes                    0 # enable clock gated lanes for power calculations
-gpgpu_shader_registers                32768 # Number of registers per shader core. Limits number of concurrent CTAs. (default 8192)
-gpgpu_shader_cta                       8 # Maximum number of concurrent CTAs in shader (default 8)
-gpgpu_n_clusters                      14 # number of processing clusters
-gpgpu_n_cores_per_cluster                    1 # number of simd cores per cluster
-gpgpu_n_cluster_ejection_buffer_size                    8 # number of packets in ejection buffer
-gpgpu_n_ldst_response_buffer_size                    2 # number of response packets in ld/st unit ejection buffer
-gpgpu_shmem_size                   16384 # Size of shared memory per shader core (default 16kB)
-gpgpu_shmem_num_banks                   32 # Number of banks in the shared memory in each shader core (default 16)
-gpgpu_shmem_limited_broadcast                    0 # Limit shared memory to do one broadcast per cycle (default on)
-gpgpu_shmem_warp_parts                    1 # Number of portions a warp is divided into for shared memory bank conflict check 
-gpgpu_warpdistro_shader                   -1 # Specify which shader core to collect the warp size distribution from
-gpgpu_warp_issue_shader                    0 # Specify which shader core to collect the warp issue distribution from
-gpgpu_local_mem_map                    1 # Mapping from local memory space address to simulated GPU physical address space (default = enabled)
-gpgpu_num_reg_banks                   16 # Number of register banks (default = 8)
-gpgpu_reg_bank_use_warp_id                    0 # Use warp ID in mapping registers to banks (default = off)
-gpgpu_operand_collector_num_units_sp                    6 # number of collector units (default = 4)
-gpgpu_operand_collector_num_units_sfu                    8 # number of collector units (default = 4)
-gpgpu_operand_collector_num_units_mem                    2 # number of collector units (default = 2)
-gpgpu_operand_collector_num_units_gen                    0 # number of collector units (default = 0)
-gpgpu_operand_collector_num_in_ports_sp                    2 # number of collector unit in ports (default = 1)
-gpgpu_operand_collector_num_in_ports_sfu                    1 # number of collector unit in ports (default = 1)
-gpgpu_operand_collector_num_in_ports_mem                    1 # number of collector unit in ports (default = 1)
-gpgpu_operand_collector_num_in_ports_gen                    0 # number of collector unit in ports (default = 0)
-gpgpu_operand_collector_num_out_ports_sp                    2 # number of collector unit in ports (default = 1)
-gpgpu_operand_collector_num_out_ports_sfu                    1 # number of collector unit in ports (default = 1)
-gpgpu_operand_collector_num_out_ports_mem                    1 # number of collector unit in ports (default = 1)
-gpgpu_operand_collector_num_out_ports_gen                    0 # number of collector unit in ports (default = 0)
-gpgpu_coalesce_arch                   13 # Coalescing arch (default = 13, anything else is off for now)
-gpgpu_num_sched_per_core                    2 # Number of warp schedulers per core
-gpgpu_max_insn_issue_per_warp                    1 # Max number of instructions that can be issued per warp in one cycle by scheduler
-gpgpu_simt_core_sim_order                    1 # Select the simulation order of cores in a cluster (0=Fix, 1=Round-Robin)
-gpgpu_pipeline_widths        2,1,1,2,1,1,2 # Pipeline widths ID_OC_SP,ID_OC_SFU,ID_OC_MEM,OC_EX_SP,OC_EX_SFU,OC_EX_MEM,EX_WB
-gpgpu_num_sp_units                     2 # Number of SP units (default=1)
-gpgpu_num_sfu_units                    1 # Number of SF units (default=1)
-gpgpu_num_mem_units                    1 # Number if ldst units (default=1) WARNING: not hooked up to anything
-gpgpu_scheduler                      lrr # Scheduler configuration: < lrr | gto | two_level_active > If two_level_active:<num_active_warps>:<inner_prioritization>:<outer_prioritization>For complete list of prioritization values see shader.h enum scheduler_prioritization_typeDefault: gto
-gpgpu_dram_scheduler                    1 # 0 = fifo, 1 = FR-FCFS (defaul)
-gpgpu_dram_partition_queues              8:8:8:8 # i2$:$2d:d2$:$2i
-l2_ideal                               0 # Use a ideal L2 cache that always hit
-gpgpu_cache:dl2     64:128:16,L:B:m:W,A:32:4,4 # unified banked L2 data cache config  {<nsets>:<bsize>:<assoc>,<rep>:<wr>:<alloc>:<wr_alloc>,<mshr>:<N>:<merge>,<mq>}
-gpgpu_cache:dl2_texture_only                    0 # L2 cache used for texture only
-gpgpu_n_mem                            5 # number of memory modules (e.g. memory controllers) in gpu
-gpgpu_n_mem_per_ctrlr                    2 # number of memory chips per memory controller
-gpgpu_memlatency_stat                   14 # track and display latency statistics 0x2 enables MC, 0x4 enables queue logs
-gpgpu_frfcfs_dram_sched_queue_size                   16 # 0 = unlimited (default); # entries per chip
-gpgpu_dram_return_queue_size                    0 # 0 = unlimited (default); # entries per chip
-gpgpu_dram_buswidth                    4 # default = 4 bytes (8 bytes per cycle at DDR)
-gpgpu_dram_burst_length                    8 # Burst length of each DRAM request (default = 4 data bus cycle)
-dram_data_command_freq_ratio                    4 # Frequency ratio between DRAM data bus and command bus (default = 2 times, i.e. DDR)
-gpgpu_dram_timing_opt nbk=16:CCD=2:RRD=6:RCD=12:RAS=28:RP=12:RC=40: CL=12:WL=4:CDLR=5:WR=12:nbkgrp=4:CCDL=3:RTPL=2 # DRAM timing parameters = {nbk:tCCD:tRRD:tRCD:tRAS:tRP:tRC:CL:WL:tCDLR:tWR:nbkgrp:tCCDL:tRTPL}
-rop_latency                          120 # ROP queue latency (default 85)
-dram_latency                         100 # DRAM latency (default 30)
-gpgpu_mem_addr_mapping dramid@8;00000000.00000000.00000000.00000000.0000RRRR.RRRRRRRR.BBBBCCCC.CCSSSSSS # mapping memory address to dram model {dramid@<start bit>;<memory address map>}
-gpgpu_mem_addr_test                    0 # run sweep test to check address mapping for aliased address
-gpgpu_mem_address_mask                    1 # 0 = old addressing mask, 1 = new addressing mask, 2 = new add. mask + flipped bank sel and chip sel bits
-gpuwattch_xml_file         gpuwattch.xml # GPUWattch XML file
-power_simulation_enabled                    1 # Turn on power simulator (1=On, 0=Off)
-power_per_cycle_dump                    0 # Dump detailed power output each cycle
-power_trace_enabled                    1 # produce a file for the power trace (1=On, 0=Off)
-power_trace_zlevel                     6 # Compression level of the power trace output log (0=no comp, 9=highest)
-steady_power_levels_enabled                    0 # produce a file for the steady power levels (1=On, 0=Off)
-steady_state_definition                  8:4 # allowed deviation:number of samples
-gpgpu_max_cycle                        0 # terminates gpu simulation early (0 = no limit)
-gpgpu_max_insn                         0 # terminates gpu simulation early (0 = no limit)
-gpgpu_max_cta                          0 # terminates gpu simulation early (0 = no limit)
-gpgpu_runtime_stat                   500 # display runtime statistics such as dram utilization {<freq>:<flag>}
-gpgpu_flush_l1_cache                    0 # Flush L1 cache at the end of each kernel call
-gpgpu_flush_l2_cache                    0 # Flush L2 cache at the end of each kernel call
-gpgpu_deadlock_detect                    1 # Stop the simulation at deadlock (1=on (default), 0=off)
-gpgpu_ptx_instruction_classification                    0 # if enabled will classify ptx instruction types per kernel (Max 255 kernels now)
-gpgpu_ptx_sim_mode                     0 # Select between Performance (default) or Functional simulation (1)
-gpgpu_clock_domains 600.0:1200.0:600.0:900.0 # Clock Domain Frequencies in MhZ {<Core Clock>:<ICNT Clock>:<L2 Clock>:<DRAM Clock>}
-gpgpu_max_concurrent_kernel                    8 # maximum kernels that can run concurrently on GPU
-gpgpu_cflog_interval                    0 # Interval between each snapshot in control flow logger
-visualizer_enabled                     0 # Turn on visualizer output (1=On, 0=Off)
-visualizer_outputfile                 NULL # Specifies the output log file for visualizer
-visualizer_zlevel                      6 # Compression level of the visualizer output log (0=no comp, 9=highest)
-trace_enabled                          0 # Turn on traces
-trace_components                    none # comma seperated list of traces to enable. Complete list found in trace_streams.tup. Default none
-trace_sampling_core                    0 # The core which is printed using CORE_DPRINTF. Default 0
-enable_ptx_file_line_stats                    1 # Turn on PTX source line statistic profiling. (1 = On)
-ptx_line_stats_filename gpgpu_inst_stats.txt # Output file for PTX source line statistics.
-save_embedded_ptx                      0 # saves ptx files embedded in binary as <n>.ptx
-keep                                   0 # keep intermediate files created by GPGPU-Sim when interfacing with external programs
-gpgpu_ptx_save_converted_ptxplus                    0 # Saved converted ptxplus to a file
-ptx_opcode_latency_int         4,13,4,5,145 # Opcode latencies for integers <ADD,MAX,MUL,MAD,DIV>Default 1,1,19,25,145
-ptx_opcode_latency_fp          4,13,4,5,39 # Opcode latencies for single precision floating points <ADD,MAX,MUL,MAD,DIV>Default 1,1,1,1,30
-ptx_opcode_latency_dp         8,19,8,8,330 # Opcode latencies for double precision floating points <ADD,MAX,MUL,MAD,DIV>Default 8,8,8,8,335
-ptx_opcode_initiation_int            1,2,2,1,8 # Opcode initiation intervals for integers <ADD,MAX,MUL,MAD,DIV>Default 1,1,4,4,32
-ptx_opcode_initiation_fp            1,2,1,1,4 # Opcode initiation intervals for single precision floating points <ADD,MAX,MUL,MAD,DIV>Default597de375603f2c2dc06f73d1b7467b23  /tmp/tmp.2QfjF6LUBq/histo__SIZE1_1
 1,1,1,1,5
-ptx_opcode_initiation_dp         8,16,8,8,130 # Opcode initiation intervals for double precision floating points <ADD,MAX,MUL,MAD,DIV>Default 8,8,8,8,130
DRAM Timing Options:
nbk                                    16 # number of banks
CCD                                     2 # column to column delay
RRD                                     6 # minimal delay between activation of rows in different banks
RCD                                    12 # row to column delay
RAS                                    28 # time needed to activate row
RP                                     12 # time needed to precharge (deactivate) row
RC                                     40 # row cycle time
CDLR                                    5 # switching from write to read (changes tWTR)
WR                                     12 # last data-in to row precharge
CL                                     12 # CAS latency
WL                                      4 # Write latency
nbkgrp                                  4 # number of bank groups
CCDL                                    3 # column to column delay between accesses to different bank groups
RTPL                                    2 # read to precharge delay between accesses to different bank groups
addr_dec_mask[CHIP]  = 0000000000000000 	high:64 low:0
addr_dec_mask[BK]    = 000000000000f000 	high:16 low:12
addr_dec_mask[ROW]   = 000000000fff0000 	high:28 low:16
addr_dec_mask[COL]   = 0000000000000fff 	high:12 low:0
addr_dec_mask[BURST] = 000000000000003f 	high:6 low:0
*** Initializing Memory Statistics ***
self exe links to: /tmp/tmp.2QfjF6LUBq/histo__SIZE1_1
Running md5sum using "md5sum /tmp/tmp.2QfjF6LUBq/histo__SIZE1_1 "
Running cuobjdump using "$CUDA_INSTALL_PATH/bin/cuobjdump -ptx -elf -sass /tmp/tmp.2QfjF6LUBq/histo__SIZE1_1 > _cuobjdump_complete_output_GmZ2ME"
Parsing file _cuobjdump_complete_output_GmZ2ME
######### cuobjdump parser ########
## Adding new section PTX
Adding ptx filename: _cuobjdump_1.ptx
Adding arch: sm_13
Adding identifier: benchmarks/histo/histo.cu
## Adding new section ELF
Adding arch: sm_13
Adding identifier: benchmarks/histo/histo.cu
Done parsing!!!
Adding _cuobjdump_1.ptx with cubin handle 1
Running: cat _ptx_amoF3K | sed 's/.version 1.5/.version 1.4/' | sed 's/, texmode_independent//' | sed 's/\(\.extern \.const\[1\] .b8 \w\+\)\[\]/\1\[1\]/' | sed 's/const\[.\]/const\[0\]/g' > _ptx2_OjdjkR

kernel '_Z20histo_prescan_kernelPjiS_' transfer to GPU hardware scheduler
kernel_name = _Z20histo_prescan_kernelPjiS_ 
kernel_launch_uid = 1 
gpu_sim_cycle = 15801
gpu_sim_insn = 5500864
gpu_ipc =     348.1339
gpu_tot_sim_cycle = 15801
gpu_tot_sim_insn = 5500864
gpu_tot_ipc =     348.1339
gpu_tot_issued_cta = 0
gpu_stall_dramfull = 12985
gpu_stall_icnt2sh    = 17802
gpu_total_sim_rate=423143
Cache L1D_000:	Size = 16384 B (32 Set x 4-way x 128 byte line)
		Access = 1524, Miss = 866 (0.568), PendingHit = 180 (0.118)
Cache L1D_001:	Size = 16384 B (32 Set x 4-way x 128 byte line)
		Access = 1402, Miss = 760 (0.542), PendingHit = 364 (0.26)
Cache L1D_002:	Size = 16384 B (32 Set x 4-way x 128 byte line)
		Access = 762, Miss = 407 (0.534), PendingHit = 80 (0.105)
Cache L1D_003:	Size = 16384 B (32 Set x 4-way x 128 byte line)
		Access = 1526, Miss = 861 (0.564), PendingHit = 277 (0.182)
Cache L1D_004:	Size = 16384 B (32 Set x 4-way x 128 byte line)
		Access = 1018, Miss = 441 (0.433), PendingHit = 253 (0.249)
Cache L1D_005:	Size = 16384 B (32 Set x 4-way x 128 byte line)
		Access = 1144, Miss = 503 (0.44), PendingHit = 311 (0.272)
Cache L1D_006:	Size = 16384 B (32 Set x 4-way x 128 byte line)
		Access = 1530, Miss = 1015 (0.663), PendingHit = 262 (0.171)
Cache L1D_007:	Size = 16384 B (32 Set x 4-way x 128 byte line)
		Access = 762, Miss = 427 (0.56), PendingHit = 70 (0.0919)
Cache L1D_008:	Size = 16384 B (32 Set x 4-way x 128 byte line)
		Access = 762, Miss = 560 (0.735), PendingHit = 24 (0.0315)
Cache L1D_009:	Size = 16384 B (32 Set x 4-way x 128 byte line)
		Access = 1016, Miss = 494 (0.486), PendingHit = 105 (0.103)
Cache L1D_010:	Size = 16384 B (32 Set x 4-way x 128 byte line)
		Access = 1276, Miss = 548 (0.429), PendingHit = 213 (0.167)
Cache L1D_011:	Size = 16384 B (32 Set x 4-way x 128 byte line)
		Access = 1528, Miss = 861 (0.563), PendingHit = 188 (0.123)
Cache L1D_012:	Size = 16384 B (32 Set x 4-way x 128 byte line)
		Access = 1016, Miss = 501 (0.493), PendingHit = 142 (0.14)
Cache L1D_013:	Size = 16384 B (32 Set x 4-way x 128 byte line)
		Access = 762, Miss = 374 (0.491), PendingHit = 204 (0.268)
total_dl1_misses=8618
total_dl1_accesses=16028
total_dl1_miss_rate= 0.537684
Shader 0 dynamic_warp_id issue ditsribution:
dynamic_warp_id:
0, 1, 2, 3, 4, 5, 6, 7, 8, 9, 10, 11, 12, 13, 14, 15, 16, 17, 18, 19, 20, 21, 22, 23, 24, 25, 26, 27, 28, 29, 30, 31, 32, 33, 34, 35, 36, 37, 38, 39, 40, 41, 42, 43, 44, 45, 46, 47, 48, 49, 50, 51, 52, 53, 54, 55, 56, 57, 58, 59, 60, 61, 62, 63, 64, 65, 66, 67, 68, 69, 70, 71, 72, 73, 74, 75, 76, 77, 78, 79, 80, 81, 82, 83, 84, 85, 86, 87, 88, 89, 90, 91, 92, 93, 94, 95, 
distro:
269, 201, 188, 188, 175, 175, 175, 175, 162, 162, 162, 162, 162, 162, 162, 162, 269, 201, 188, 188, 175, 175, 175, 175, 162, 162, 162, 162, 162, 162, 162, 162, 269, 201, 188, 188, 175, 175, 175, 175, 162, 162, 162, 162, 162, 162, 162, 162, 269, 201, 188, 188, 175, 175, 175, 175, 162, 162, 162, 162, 162, 162, 162, 162, 269, 201, 188, 188, 175, 175, 175, 175, 162, 162, 162, 162, 162, 162, 162, 162, 269, 201, 188, 188, 175, 175, 175, 175, 162, 162, 162, 162, 162, 162, 162, 162, 
gpgpu_n_tot_thrd_icount = 5820416
gpgpu_n_tot_w_icount = 181888
gpgpu_n_icache_hits = 104640
gpgpu_n_icache_misses = 3448
gpgpu_n_l1dcache_read_hits = 4737
gpgpu_n_l1dcache_read_misses = 11291
gpgpu_n_l1dcache_write_accesses = 0
gpgpu_n_l1dcache_wirte_misses = 0
gpgpu_n_tcache_hits = 0
gpgpu_n_tcache_misses = 0
gpgpu_n_ccache_hits = 2688
gpgpu_n_ccache_misses = 448
gpgpu_n_stall_shd_mem = 58199
gpgpu_n_mem_read_local = 0
gpgpu_n_mem_write_local = 0
gpgpu_n_mem_read_global = 8746
gpgpu_n_mem_write_global = 0
gpgpu_n_mem_texture = 0
gpgpu_n_mem_const = 14
gpgpu_n_load_insn  = 518144
gpgpu_n_store_insn = 0
gpgpu_n_shmem_insn = 782208
gpgpu_n_tex_insn = 0
gpgpu_n_const_mem_insn = 0
gpgpu_n_param_mem_insn = 196736
gpgpu_n_shmem_bkconflict = 0
gpgpu_n_cache_bkconflict = 0
gpgpu_n_intrawarp_mshr_merge = 0
gpgpu_n_cmem_portconflict = 2919
gpgpu_stall_shd_mem[c_mem][bk_conf] = 2919
gpgpu_stall_shd_mem[c_mem][mshr_rc] = 0
gpgpu_stall_shd_mem[c_mem][icnt_rc] = 0
gpgpu_stall_shd_mem[t_mem][mshr_rc] = 0
gpgpu_stall_shd_mem[t_mem][icnt_rc] = 0
gpgpu_stall_shd_mem[s_mem][bk_conf] = 0
gpgpu_stall_shd_mem[gl_mem][bk_conf] = 0
gpgpu_stall_shd_mem[gl_mem][coal_stall] = 55280
gpgpu_stall_shd_mem[g_mem_ld][mshr_rc] = 0
gpgpu_stall_shd_mem[g_mem_ld][icnt_rc] = 0
gpgpu_stall_shd_mem[g_mem_ld][wb_icnt_rc] = 0
gpgpu_stall_shd_mem[g_mem_ld][wb_rsrv_fail] = 0
gpgpu_stall_shd_mem[g_mem_st][mshr_rc] = 0
gpgpu_stall_shd_mem[g_mem_st][icnt_rc] = 0
gpgpu_stall_shd_mem[g_mem_st][wb_icnt_rc] = 0
gpgpu_stall_shd_mem[g_mem_st][wb_rsrv_fail] = 0
gpgpu_stall_shd_mem[l_mem_ld][mshr_rc] = 0
gpgpu_stall_shd_mem[l_mem_ld][icnt_rc] = 0
gpgpu_stall_shd_mem[l_mem_ld][wb_icnt_rc] = 0
gpgpu_stall_shd_mem[l_mem_ld][wb_rsrv_fail] = 0
gpgpu_stall_shd_mem[l_mem_st][mshr_rc] = 0
gpgpu_stall_shd_mem[l_mem_st][icnt_rc] = 0
gpgpu_stall_shd_mem[l_mem_ld][wb_icnt_rc] = 0
gpgpu_stall_shd_mem[l_mem_ld][wb_rsrv_fail] = 0
gpu_reg_bank_conflict_stalls = 0
Warp Occupancy Distribution:
Stall:89925	W0_Idle:44895	W0_Scoreboard:41166	W1:1472	W2:512	W3:0	W4:512	W5:0	W6:0	W7:1088	W8:512	W9:0	W10:0	W11:0	W12:0	W13:0	W14:0	W15:0	W16:512	W17:0	W18:0	W19:0	W20:0	W21:0	W22:0	W23:0	W24:0	W25:0	W26:0	W27:0	W28:0	W29:0	W30:0	W31:0	W32:177280
maxmrqlatency = 148 
maxdqlatency = 0 
maxmflatency = 642 
averagemflatency = 293 
max_icnt2mem_latency = 397 
max_icnt2sh_latency = 29 
mrq_lat_table:1947 	126 	172 	380 	766 	536 	192 	2 	0 	0 	0 	0 	0 	0 	0 	0 	0 	0 	0 	0 	0 	0 	0 	0 	0 	0 	0 	0 	0 	0 	0 	0 	
dq_lat_table:0 	0 	0 	0 	0 	0 	0 	0 	0 	0 	0 	0 	0 	0 	0 	0 	0 	0 	0 	0 	0 	0 	0 	0 	0 	0 	0 	0 	0 	0 	0 	0 	
mf_lat_table:0 	0 	0 	0 	0 	0 	589 	2777 	5137 	257 	0 	0 	0 	0 	0 	0 	0 	0 	0 	0 	0 	0 	0 	0 	0 	0 	0 	0 	0 	0 	0 	0 	
icnt2mem_lat_table:194 	4147 	220 	353 	449 	627 	1297 	1495 	132 	0 	0 	0 	0 	0 	0 	0 	0 	0 	0 	0 	0 	0 	0 	0 	
icnt2sh_lat_table:97 	2267 	2501 	3670 	225 	0 	0 	0 	0 	0 	0 	0 	0 	0 	0 	0 	0 	0 	0 	0 	0 	0 	0 	0 	
mf_lat_pw_table:0 	0 	0 	0 	0 	0 	5 	10 	11 	0 	0 	0 	0 	0 	0 	0 	0 	0 	0 	0 	0 	0 	0 	0 	0 	0 	0 	0 	0 	0 	0 	0 	
maximum concurrent accesses to same row:
dram[0]:         7         8         3         5         4         4         4         4         8         4         4         7         4         6         4         4 
dram[1]:         7         8         3         6         4         4         4         4         8         4         4        10         4         6         4         4 
dram[2]:         8         9         5         5         4         4         4         4         8         3         4        10         4         7         4         3 
dram[3]:         6        10         4         6         4         3         4         4         8         3         3        10         3         8         4         4 
dram[4]:         8        10         3         6         4         4         4         4         8         4         4         9         4         6         4         4 
maximum service time to same row:
dram[0]:      3372      8006      1525      1637      8098      6862      1527      9465      5691      1499      9767      5938      1669      6082      6126      1535 
dram[1]:      4098      7934      1536      1607      8100      6856      1529      9445      5856      1513      9863      5978      1695      6074      5986      1493 
dram[2]:      5904      7996      1629      1621      8112      6846      1537      9443      5916      1515      9859      5606      1729      6192      5616      1495 
dram[3]:      5860      7978      1531      4842      8106      6906      1539      9423      5600      1519      9831      5986      1753      6252      5614      1507 
dram[4]:      4800      7988      1534      1639      7964      6890      1528      9435      5688      1509      9767      5992      1681      6296      5622      1499 
average row accesses per activate:
dram[0]:  3.375000  2.782609  1.970588  2.000000  2.454545  1.777778  2.437500  2.111111  2.125000  1.450000  2.461539  1.911765  1.700000  8.000000  3.000000  1.641026 
dram[1]:  2.700000  2.481482  1.763158  2.454545  2.550000  1.763158  2.187500  2.277778  1.911765  1.648649  2.500000  2.538461  1.857143  8.000000  2.481482  1.625000 
dram[2]:  3.250000  2.518518  1.777778  1.928571  2.631579  1.700000  2.125000  1.954545  2.000000  1.694444  2.142857  2.125000  1.722222  8.666667  2.285714  1.658537 
dram[3]:  2.363636  2.310345  1.857143  2.181818  2.318182  1.595238  2.615385  1.800000  2.096774  1.578947  2.000000  2.266667  1.722222  7.000000  2.600000  2.000000 
dram[4]:  2.888889  2.666667  1.675000  3.142857  2.391304  1.777778  3.363636  2.210526  2.125000  1.727273  2.062500  2.031250  1.756757  4.333333  2.615385  1.857143 
average row locality = 4121/1976 = 2.085526
number of total memory accesses made:
dram[0]:         0         0         0         0         0         0         0         0         0         0         0         0         0         0         0         0 
dram[1]:         0         0         0         0         0         0         0         0         0         0         0         0         0         0         0         0 
dram[2]:         0         0         0         0         0         0         0         0         0         0         0         0         0         0         0         0 
dram[3]:         0         0         0         0         0         0         0         0         0         0         0         0         0         0         0         0 
dram[4]:         0         0         0         0         0         0         0         0         0         0         0         0         0         0         0         0 
total accesses: 0
min_bank_accesses = 0!
min_chip_accesses = 0!
number of total read accesses:
dram[0]:        27        64        67        26        54        64        39        38        68        58        32        65        68        24        66        64 
dram[1]:        27        67        67        27        51        67        35        41        65        61        30        66        65        24        67        65 
dram[2]:        26        68        64        27        50        68        34        43        64        61        30        68        62        26        64        68 
dram[3]:        26        67        65        24        51        67        34        45        65        60        30        68        62        28        65        68 
dram[4]:        26        64        67        22        55        64        37        42        68        57        33        65        65        26        68        65 
total reads: 4121
bank skew: 68/22 = 3.09
chip skew: 825/823 = 1.00
number of total write accesses:
dram[0]:         0         0         0         0         0         0         0         0         0         0         0         0         0         0         0         0 
dram[1]:         0         0         0         0         0         0         0         0         0         0         0         0         0         0         0         0 
dram[2]:         0         0         0         0         0         0         0         0         0         0         0         0         0         0         0         0 
dram[3]:         0         0         0         0         0         0         0         0         0         0         0         0         0         0         0         0 
dram[4]:         0         0         0         0         0         0         0         0         0         0         0         0         0         0         0         0 
total reads: 0
min_bank_accesses = 0!
min_chip_accesses = 0!
average mf latency per bank:
dram[0]:        620       457       663       714       387       673       669       344       668       758       419       612       758       480       510       737
dram[1]:        523       463       729       809       373       740       715       333       727       751       417       653       771       553       537       838
dram[2]:        543       461       700       754       377       707       684       350       710       710       439       635       746       514       530       770
dram[3]:        525       478       712      1455       385       704       687       328       685       716       419       665       754       470       537       740
dram[4]:        529       480       738       693       397       683       683       340       713       765       422       664       783       485       539       776
maximum mf latency per bank:
dram[0]:        458       493       560       536       399       572       539       340       562       586       287       565       573       537       515       542
dram[1]:        541       545       572       567       420       618       642       336       558       566       317       547       550       576       490       579
dram[2]:        523       521       520       557       439       566       525       357       503       539       311       549       538       507       501       570
dram[3]:        497       465       553       508       417       516       533       305       512       532       305       546       532       508       465       540
dram[4]:        464       473       575       486       427       505       505       317       508       600       303       523       552       441       481       571

Number of Memory Banks Accessed per Memory Operation per Warp (from 0):
0	0	0	0	0	0	0	0	0	0	0	0	0	0	0	0	0	0	0	0	0	0	0	0	0	0	0	0	0	0	0	0	0	0	0	0	0	0	0	0	0	0	0	0	0	0	0	0	0	0	0	0	0	0	0	0	0	0	0	0	0	0	0	0	0	0	0	0	0	0	0	0	0	0	0	0	0	0	0	0	
Average # of Memory Banks Accessed per Memory Operation per Warp=-nan

position of mrq chosen
0	0	0	0	0	0	0	0	0	0	0	0	0	0	0	0	

average position of mrq chosen = -nan
gpgpu_l2_write_miss = 0
gpgpu_l2_write_access = 0
gpgpu_l2_read_miss = 0
gpgpu_l2_read_access = 0
Cache L2_bank_000:
MSHR contents

DRAM[0]: 16 bks, busW=4 BL=8 CL=12, tRRD=2 tCCD=6, tRCD=12 tRAS=28 tRP=12 tRC=40
n_cmd=23700 n_nop=21280 n_act=394 n_pre=378 n_req=824 n_rd=1648 n_write=0 bw_util=0.1391
n_activity=6569 dram_eff=0.5018
bk0: 54a 23121i bk1: 128a 22844i bk2: 134a 22399i bk3: 52a 22952i bk4: 108a 23104i bk5: 128a 22558i bk6: 78a 22918i bk7: 76a 23163i bk8: 136a 22633i bk9: 116a 22582i bk10: 64a 23088i bk11: 130a 22536i bk12: 136a 22196i bk13: 48a 22882i bk14: 132a 21939i bk15: 128a 19614i 
dram_util_bins: 0 0 0 0 0 0 0 0 0 0
dram_eff_bins: 0 0 0 0 0 0 0 0 0 0
mrqq: max=16 avg=0.759705
Cache L2_bank_001:
MSHR contents

DRAM[1]: 16 bks, busW=4 BL=8 CL=12, tRRD=2 tCCD=6, tRCD=12 tRAS=28 tRP=12 tRC=40
n_cmd=23700 n_nop=21280 n_act=393 n_pre=377 n_req=825 n_rd=1650 n_write=0 bw_util=0.1392
n_activity=6627 dram_eff=0.498
bk0: 54a 23053i bk1: 134a 22876i bk2: 134a 22397i bk3: 54a 22942i bk4: 102a 23051i bk5: 134a 22510i bk6: 70a 22946i bk7: 82a 23112i bk8: 130a 22645i bk9: 122a 22612i bk10: 60a 23187i bk11: 132a 22690i bk12: 130a 22397i bk13: 48a 22793i bk14: 134a 21984i bk15: 130a 19524i 
dram_util_bins: 0 0 0 0 0 0 0 0 0 0
dram_eff_bins: 0 0 0 0 0 0 0 0 0 0
mrqq: max=16 avg=0.821097
Cache L2_bank_002:
MSHR contents

DRAM[2]: 16 bks, busW=4 BL=8 CL=12, tRRD=2 tCCD=6, tRCD=12 tRAS=28 tRP=12 tRC=40
n_cmd=23700 n_nop=21260 n_act=405 n_pre=389 n_req=823 n_rd=1646 n_write=0 bw_util=0.1389
n_activity=6507 dram_eff=0.5059
bk0: 52a 23104i bk1: 136a 22785i bk2: 128a 22466i bk3: 54a 23008i bk4: 100a 23044i bk5: 136a 22476i bk6: 68a 22836i bk7: 86a 23111i bk8: 128a 22632i bk9: 122a 22535i bk10: 60a 23147i bk11: 136a 22695i bk12: 124a 22195i bk13: 52a 22888i bk14: 128a 21902i bk15: 136a 19577i 
dram_util_bins: 0 0 0 0 0 0 0 0 0 0
dram_eff_bins: 0 0 0 0 0 0 0 0 0 0
mrqq: max=16 avg=0.791603
Cache L2_bank_003:
MSHR contents

DRAM[3]: 16 bks, busW=4 BL=8 CL=12, tRRD=2 tCCD=6, tRCD=12 tRAS=28 tRP=12 tRC=40
n_cmd=23700 n_nop=21264 n_act=401 n_pre=385 n_req=825 n_rd=1650 n_write=0 bw_util=0.1392
n_activity=6485 dram_eff=0.5089
bk0: 52a 23175i bk1: 134a 22792i bk2: 130a 22424i bk3: 48a 23013i bk4: 102a 23028i bk5: 134a 22657i bk6: 68a 22988i bk7: 90a 23221i bk8: 130a 22640i bk9: 120a 22586i bk10: 60a 23069i bk11: 136a 22639i bk12: 124a 22135i bk13: 56a 22890i bk14: 130a 21950i bk15: 136a 19641i 
dram_util_bins: 0 0 0 0 0 0 0 0 0 0
dram_eff_bins: 0 0 0 0 0 0 0 0 0 0
mrqq: max=16 avg=0.715401
Cache L2_bank_004:
MSHR contents

DRAM[4]: 16 bks, busW=4 BL=8 CL=12, tRRD=2 tCCD=6, tRCD=12 tRAS=28 tRP=12 tRC=40
n_cmd=23700 n_nop=21296 n_act=386 n_pre=370 n_req=824 n_rd=1648 n_write=0 bw_util=0.1391
n_activity=6365 dram_eff=0.5178
bk0: 52a 23148i bk1: 128a 22876i bk2: 134a 22440i bk3: 44a 23035i bk4: 110a 23074i bk5: 128a 22624i bk6: 74a 22884i bk7: 84a 23195i bk8: 136a 22619i bk9: 114a 22569i bk10: 66a 23124i bk11: 130a 22613i bk12: 130a 22190i bk13: 52a 22830i bk14: 136a 21984i bk15: 130a 19733i 
dram_util_bins: 0 0 0 0 0 0 0 0 0 0
dram_eff_bins: 0 0 0 0 0 0 0 0 0 0
mrqq: max=16 avg=0.789114
Cache L2_bank_000:	Size = 131072 B (64 Set x 16-way x 128 byte line)
		Access = 1757, Miss = 824 (0.469), PendingHit = 9 (0.00512)
Cache L2_bank_001:	Size = 131072 B (64 Set x 16-way x 128 byte line)
		Access = 1771, Miss = 825 (0.466), PendingHit = 9 (0.00508)
Cache L2_bank_002:	Size = 131072 B (64 Set x 16-way x 128 byte line)
		Access = 1748, Miss = 823 (0.471), PendingHit = 6 (0.00343)
Cache L2_bank_003:	Size = 131072 B (64 Set x 16-way x 128 byte line)
		Access = 1876, Miss = 825 (0.44), PendingHit = 8 (0.00426)
Cache L2_bank_004:	Size = 131072 B (64 Set x 16-way x 128 byte line)
		Access = 1762, Miss = 824 (0.468), PendingHit = 0 (0)
L2 Cache Total Miss Rate = 0.462

icnt_total_pkts_mem_to_simt=44158
icnt_total_pkts_simt_to_mem=8914

LD_mem_lat_dist  0 0 0 0 0 0 0 0 0 0 0 0 0 0 0 0 0 0 0 0 0 0 0 0 0 0 0
ST_mem_lat_dist  0 0 0 0 0 0 0 0 0 0 0 0 0 0 0 0 0 0 0 0 0 0 0 0 0 0 0
Traffic 0 Stat
%=================================
% Average latency = 62.4595
% Accepted packets = 0 at node 0 (avg = 0.0124404)
lat(1) = 62.4595;
thru(1,:) = [ 0 0 0 0 0 0 0 0 0 0 0 0 0 0 0.0555995 0.0560425 0.0553147 0.0634157 0.0557577 0 0 0 0 ];
% latency change    = 1
% throughput change = 1
Traffic 1 Stat
%=================================
% Average latency = 12.7498
% Accepted packets = 0 at node 14 (avg = 0.0607548)
lat(2) = 12.7498;
thru(2,:) = [ 0.139616 0.122844 0.0666118 0.138825 0.072118 0.0820544 0.163191 0.0697763 0.0908199 0.0805038 0.0891744 0.138825 0.0816113 0.0613905 0 0 0 0 0 0 0 0 0 ];
% latency change    = 3.89885
% throughput change = 0.795235
----------------------------Interconnect-DETAILS---------------------------------=======Traffic[0]class0 ======
Traffic[0]class0Overall average latency = 62.4595 (1 samples)
Traffic[0]class0Overall average accepted rate = 0.0124404 (1 samples)
Traffic[0]class0Overall min accepted rate = 0 (1 samples)
traffic_manager/latency_stat_0_freq = [ 0 4785 544 100 54 34 25 31 16 20 9 26 12 24 7 16 9 25 9 21 3 16 7 18 10 20 4 13 8 22 10 13 3 12 2 19 3 7 6 18 9 13 6 14 5 14 8 18 7 18 3 15 9 19 4 13 4 20 6 13 5 18 5 20 4 13 4 12 5 19 6 20 4 24 10 18 12 16 5 16 5 17 6 16 6 15 7 15 3 16 9 10 4 16 5 20 3 15 8 17 5 17 5 7 9 11 3 24 6 10 4 14 8 15 2 18 7 14 4 18 4 21 3 13 4 11 7 16 4 18 6 11 5 19 2 17 9 17 7 12 3 15 12 18 5 12 8 15 6 17 6 18 5 14 3 18 7 21 5 12 5 25 1 20 5 20 2 16 9 14 6 20 1 13 3 23 4 33 6 14 3 21 3 14 6 20 6 18 4 20 4 18 4 27 3 14 5 23 9 19 0 18 3 22 4 17 3 10 8 24 3 23 2 9 5 24 2 18 5 8 2 18 4 15 4 18 2 17 3 15 0 21 5 16 3 22 3 15 0 19 3 16 1 10 3 13 2 10 0 10 2 7 1 19 3 22 5 18 4 12 2 13 5 11 3 20 2 8 2 14 0 6 2 6 2 12 3 9 1 7 4 10 4 9 2 13 5 14 0 7 3 12 2 9 1 10 1 8 2 8 2 4 0 13 1 10 1 7 0 12 1 4 0 4 2 4 0 7 1 8 0 6 1 4 1 9 3 6 0 6 0 6 0 5 0 4 3 5 1 5 1 3 0 5 0 2 0 1 3 5 0 5 0 1 0 2 1 5 0 7 1 2 0 2 0 4 0 6 0 3 0 3 0 1 0 3 0 3 0 2 1 1 1 4 0 1 0 4 0 3 0 1 1 1 1 2 0 2 0 2 0 1 0 0 0 2 0 4 0 3 0 2 0 1 0 3 0 5 0 1 1 2 0 1 1 1 1 3 1 1 0 0 0 2 0 0 0 2 0 0 1 0 1 2 0 1 1 1 0 0 0 3 0 0 0 0 0 1 0 0 0 0 2 1 0 1 1 5 0 0 0 0 0 2 0 2 0 0 0 0 0 0 0 0 0 0 1 0 0 0 0 0 0 1 0 1 0 1 0 2 0 2 0 0 0 1 0 0 0 0 0 0 0 0 0 0 0 2 0 0 0 1 0 1 0 0 0 0 0 0 0 1 0 0 0 1 0 1 0 0 0 0 0 0 0 0 0 2 0 0 0 0 0 0 0 0 0 0 0 0 0 0 0 0 0 0 0 0 0 1 0 0 0 2 0 0 0 0 0 1 0 0 0 0 0 1 0 1 0 2 0 0 0 0 0 0 0 0 0 0 0 0 0 0 0 0 0 0 0 0 0 0 0 0 0 0 0 0 0 0 0 0 0 0 0 1 0 0 0 0 0 0 0 1 0 0 0 0 0 0 0 0 0 1 0 0 0 0 0 0 0 0 0 0 0 0 0 0 0 0 0 0 0 0 0 0 0 1 0 0 0 0 0 0 0 0 0 0 0 0 0 0 0 0 0 0 0 0 0 0 0 0 0 0 0 0 0 0 0 0 0 0 0 0 0 0 0 0 0 0 0 0 0 0 0 0 0 0 0 0 0 0 0 0 0 0 0 0 0 0 0 0 0 0 0 0 0 0 0 0 0 0 0 0 0 0 0 0 0 0 0 0 0 0 0 0 0 0 0 0 0 0 0 0 0 0 0 0 0 0 0 0 0 0 0 0 0 0 0 0 0 0 0 0 0 0 0 0 0 0 0 0 0 0 0 0 0 0 0 0 0 0 0 0 0 0 0 0 0 0 0 0 0 0 0 0 0 0 0 0 0 0 0 0 0 0 0 0 0 0 0 0 0 0 0 0 0 0 0 0 0 0 0 0 0 0 0 0 0 0 0 0 0 0 0 0 0 0 0 0 0 0 0 0 0 0 0 0 0 0 0 0 0 0 0 0 0 0 0 0 0 0 0 0 0 0 0 0 0 0 0 0 0 0 0 0 0 0 0 0 0 0 0 0 0 0 0 0 0 0 0 0 0 0 0 0 0 0 0 0 0 0 0 0 0 0 0 0 0 0 0 0 0 0 0 0 0 0 0 0 0 0 0 0 0 0 0 0 0 0 0 0 0 0 0 0 0 0 0 0 0 0 0 0 0 0 0 0 0 0 0 0 0 0 0 0 0 0 0 0 0 0 0 0 0 0 0 0 0 0 0 0 0 0 0 0 0 0 0 0 ];
Traffic[0]class1Average hops = 1 (8914 samples)
traffic_manager/hop_stats_freq = [ 0 8914 0 0 0 0 0 0 0 0 0 0 0 0 0 0 0 0 0 0 ];
=======Traffic[1]class0 ======
Traffic[1]class0Overall average latency = 12.7498 (1 samples)
Traffic[1]class0Overall average accepted rate = 0.0607548 (1 samples)
Traffic[1]class0Overall min accepted rate = 0 (1 samples)
traffic_manager/latency_stat_0_freq = [ 0 0 97 2 2 1918 394 289 605 619 317 164 211 197 231 251 1684 117 100 117 122 692 60 59 54 38 270 18 16 28 22 105 0 7 14 7 36 5 3 5 2 14 2 1 4 0 6 0 0 1 0 2 1 0 0 0 5 0 0 0 0 0 0 0 0 0 0 0 0 0 0 0 0 0 0 0 0 0 0 0 0 0 0 0 0 0 0 0 0 0 0 0 0 0 0 0 0 0 0 0 0 0 0 0 0 0 0 0 0 0 0 0 0 0 0 0 0 0 0 0 0 0 0 0 0 0 0 0 0 0 0 0 0 0 0 0 0 0 0 0 0 0 0 0 0 0 0 0 0 0 0 0 0 0 0 0 0 0 0 0 0 0 0 0 0 0 0 0 0 0 0 0 0 0 0 0 0 0 0 0 0 0 0 0 0 0 0 0 0 0 0 0 0 0 0 0 0 0 0 0 0 0 0 0 0 0 0 0 0 0 0 0 0 0 0 0 0 0 0 0 0 0 0 0 0 0 0 0 0 0 0 0 0 0 0 0 0 0 0 0 0 0 0 0 0 0 0 0 0 0 0 0 0 0 0 0 0 0 0 0 0 0 0 0 0 0 0 0 0 0 0 0 0 0 0 0 0 0 0 0 0 0 0 0 0 0 0 0 0 0 0 0 0 0 0 0 0 0 0 0 0 0 0 0 0 0 0 0 0 0 0 0 0 0 0 0 0 0 0 0 0 0 0 0 0 0 0 0 0 0 0 0 0 0 0 0 0 0 0 0 0 0 0 0 0 0 0 0 0 0 0 0 0 0 0 0 0 0 0 0 0 0 0 0 0 0 0 0 0 0 0 0 0 0 0 0 0 0 0 0 0 0 0 0 0 0 0 0 0 0 0 0 0 0 0 0 0 0 0 0 0 0 0 0 0 0 0 0 0 0 0 0 0 0 0 0 0 0 0 0 0 0 0 0 0 0 0 0 0 0 0 0 0 0 0 0 0 0 0 0 0 0 0 0 0 0 0 0 0 0 0 0 0 0 0 0 0 0 0 0 0 0 0 0 0 0 0 0 0 0 0 0 0 0 0 0 0 0 0 0 0 0 0 0 0 0 0 0 0 0 0 0 0 0 0 0 0 0 0 0 0 0 0 0 0 0 0 0 0 0 0 0 0 0 0 0 0 0 0 0 0 0 0 0 0 0 0 0 0 0 0 0 0 0 0 0 0 0 0 0 0 0 0 0 0 0 0 0 0 0 0 0 0 0 0 0 0 0 0 0 0 0 0 0 0 0 0 0 0 0 0 0 0 0 0 0 0 0 0 0 0 0 0 0 0 0 0 0 0 0 0 0 0 0 0 0 0 0 0 0 0 0 0 0 0 0 0 0 0 0 0 0 0 0 0 0 0 0 0 0 0 0 0 0 0 0 0 0 0 0 0 0 0 0 0 0 0 0 0 0 0 0 0 0 0 0 0 0 0 0 0 0 0 0 0 0 0 0 0 0 0 0 0 0 0 0 0 0 0 0 0 0 0 0 0 0 0 0 0 0 0 0 0 0 0 0 0 0 0 0 0 0 0 0 0 0 0 0 0 0 0 0 0 0 0 0 0 0 0 0 0 0 0 0 0 0 0 0 0 0 0 0 0 0 0 0 0 0 0 0 0 0 0 0 0 0 0 0 0 0 0 0 0 0 0 0 0 0 0 0 0 0 0 0 0 0 0 0 0 0 0 0 0 0 0 0 0 0 0 0 0 0 0 0 0 0 0 0 0 0 0 0 0 0 0 0 0 0 0 0 0 0 0 0 0 0 0 0 0 0 0 0 0 0 0 0 0 0 0 0 0 0 0 0 0 0 0 0 0 0 0 0 0 0 0 0 0 0 0 0 0 0 0 0 0 0 0 0 0 0 0 0 0 0 0 0 0 0 0 0 0 0 0 0 0 0 0 0 0 0 0 0 0 0 0 0 0 0 0 0 0 0 0 0 0 0 0 0 0 0 0 0 0 0 0 0 0 0 0 0 0 0 0 0 0 0 0 0 0 0 0 0 0 0 0 0 0 0 0 0 0 0 0 0 0 0 0 0 0 0 0 0 0 0 0 0 0 0 0 0 0 0 0 0 0 0 0 0 0 0 0 0 0 0 0 0 0 0 0 0 0 0 0 0 0 0 0 0 0 0 0 0 0 0 0 0 0 0 0 0 0 0 0 0 0 0 0 0 0 0 0 0 0 0 0 0 0 0 0 0 0 0 0 0 0 0 0 0 0 0 ];
Traffic[1]class1Average hops = 1 (8914 samples)
traffic_manager/hop_stats_freq = [ 0 8914 0 0 0 0 0 0 0 0 0 0 0 0 0 0 0 0 0 0 ];
----------------------------END-of-Interconnect-DETAILS-------------------------

gpgpu_simulation_time = 0 days, 0 hrs, 0 min, 13 sec (13 sec)
gpgpu_simulation_rate = 423143 (inst/sec)
gpgpu_simulation_rate = 1215 (cycle/sec)

kernel '_Z26histo_intermediates_kernelP5uint2jjjP6uchar4' transfer to GPU hardware scheduler
kernel_name = _Z26histo_intermediates_kernelP5uint2jjjP6uchar4 
kernel_launch_uid = 2 
gpu_sim_cycle = 156974
gpu_sim_insn = 15893670
gpu_ipc =     101.2503
gpu_tot_sim_cycle = 172775
gpu_tot_sim_insn = 21394534
gpu_tot_ipc =     123.8289
gpu_tot_issued_cta = 0
gpu_stall_dramfull = 395691
gpu_stall_icnt2sh    = 23964
gpu_total_sim_rate=213945
Cache L1D_000:	Size = 16384 B (32 Set x 4-way x 128 byte line)
		Access = 5856, Miss = 4913 (0.839), PendingHit = 183 (0.0312)
Cache L1D_001:	Size = 16384 B (32 Set x 4-way x 128 byte line)
		Access = 5012, Miss = 3694 (0.737), PendingHit = 410 (0.0818)
Cache L1D_002:	Size = 16384 B (32 Set x 4-way x 128 byte line)
		Access = 5094, Miss = 4390 (0.862), PendingHit = 82 (0.0161)
Cache L1D_003:	Size = 16384 B (32 Set x 4-way x 128 byte line)
		Access = 3692, Miss = 2799 (0.758), PendingHit = 277 (0.075)
Cache L1D_004:	Size = 16384 B (32 Set x 4-way x 128 byte line)
		Access = 3184, Miss = 2276 (0.715), PendingHit = 258 (0.081)
Cache L1D_005:	Size = 16384 B (32 Set x 4-way x 128 byte line)
		Access = 3310, Miss = 2472 (0.747), PendingHit = 320 (0.0967)
Cache L1D_006:	Size = 16384 B (32 Set x 4-way x 128 byte line)
		Access = 3696, Miss = 2847 (0.77), PendingHit = 288 (0.0779)
Cache L1D_007:	Size = 16384 B (32 Set x 4-way x 128 byte line)
		Access = 5094, Miss = 4139 (0.813), PendingHit = 89 (0.0175)
Cache L1D_008:	Size = 16384 B (32 Set x 4-way x 128 byte line)
		Access = 2928, Miss = 2632 (0.899), PendingHit = 46 (0.0157)
Cache L1D_009:	Size = 16384 B (32 Set x 4-way x 128 byte line)
		Access = 5348, Miss = 4230 (0.791), PendingHit = 135 (0.0252)
Cache L1D_010:	Size = 16384 B (32 Set x 4-way x 128 byte line)
		Access = 3442, Miss = 2346 (0.682), PendingHit = 222 (0.0645)
Cache L1D_011:	Size = 16384 B (32 Set x 4-way x 128 byte line)
		Access = 5860, Miss = 5025 (0.858), PendingHit = 196 (0.0334)
Cache L1D_012:	Size = 16384 B (32 Set x 4-way x 128 byte line)
		Access = 5348, Miss = 4211 (0.787), PendingHit = 154 (0.0288)
Cache L1D_013:	Size = 16384 B (32 Set x 4-way x 128 byte line)
		Access = 5094, Miss = 4346 (0.853), PendingHit = 211 (0.0414)
total_dl1_misses=50320
total_dl1_accesses=62958
total_dl1_miss_rate= 0.799263
Shader 0 dynamic_warp_id issue ditsribution:
dynamic_warp_id:
0, 1, 2, 3, 4, 5, 6, 7, 8, 9, 10, 11, 12, 13, 14, 15, 16, 17, 18, 19, 20, 21, 22, 23, 24, 25, 26, 27, 28, 29, 30, 31, 32, 33, 34, 35, 36, 37, 38, 39, 40, 41, 42, 43, 44, 45, 46, 47, 48, 49, 50, 51, 52, 53, 54, 55, 56, 57, 58, 59, 60, 61, 62, 63, 64, 65, 66, 67, 68, 69, 70, 71, 72, 73, 74, 75, 76, 77, 78, 79, 80, 81, 82, 83, 84, 85, 86, 87, 88, 89, 90, 91, 92, 93, 94, 95, 96, 97, 98, 99, 100, 101, 102, 103, 104, 105, 106, 107, 108, 109, 110, 111, 112, 113, 114, 115, 116, 117, 118, 119, 120, 121, 122, 123, 124, 125, 126, 127, 128, 129, 130, 131, 132, 133, 134, 135, 136, 137, 138, 139, 140, 141, 142, 143, 144, 145, 146, 147, 148, 149, 150, 151, 152, 153, 154, 155, 156, 157, 158, 159, 160, 161, 162, 163, 164, 165, 166, 167, 168, 169, 170, 171, 172, 173, 174, 175, 176, 177, 178, 179, 180, 181, 182, 183, 184, 185, 186, 187, 188, 189, 190, 191, 
distro:
269, 201, 188, 188, 175, 175, 175, 175, 162, 162, 162, 162, 162, 162, 162, 162, 269, 201, 188, 188, 175, 175, 175, 175, 162, 162, 162, 162, 162, 162, 162, 162, 269, 201, 188, 188, 175, 175, 175, 175, 162, 162, 162, 162, 162, 162, 162, 162, 269, 201, 188, 188, 175, 175, 175, 175, 162, 162, 162, 162, 162, 162, 162, 162, 269, 201, 188, 188, 175, 175, 175, 175, 162, 162, 162, 162, 162, 162, 162, 162, 269, 201, 188, 188, 175, 175, 175, 175, 162, 162, 162, 162, 162, 162, 162, 162, 507, 507, 507, 507, 507, 507, 507, 507, 507, 507, 507, 507, 507, 507, 507, 507, 507, 507, 507, 507, 507, 507, 507, 507, 507, 507, 507, 507, 507, 507, 507, 507, 507, 507, 507, 507, 507, 507, 507, 507, 507, 507, 507, 507, 507, 507, 507, 507, 507, 507, 507, 507, 507, 507, 507, 507, 507, 507, 507, 507, 507, 507, 507, 507, 507, 507, 507, 507, 507, 507, 507, 507, 507, 507, 507, 507, 507, 507, 507, 507, 507, 507, 507, 507, 507, 507, 507, 507, 507, 507, 507, 507, 507, 507, 507, 507, 
gpgpu_n_tot_thrd_icount = 22693376
gpgpu_n_tot_w_icount = 709168
gpgpu_n_icache_hits = 368800
gpgpu_n_icache_misses = 17111
gpgpu_n_l1dcache_read_hits = 9767
gpgpu_n_l1dcache_read_misses = 53191
gpgpu_n_l1dcache_write_accesses = 154440
gpgpu_n_l1dcache_wirte_misses = 154440
gpgpu_n_tcache_hits = 0
gpgpu_n_tcache_misses = 0
gpgpu_n_ccache_hits = 55728
gpgpu_n_ccache_misses = 448
gpgpu_n_stall_shd_mem = 1725896
gpgpu_n_mem_read_local = 0
gpgpu_n_mem_write_local = 0
gpgpu_n_mem_read_global = 50448
gpgpu_n_mem_write_global = 154440
gpgpu_n_mem_texture = 0
gpgpu_n_mem_const = 14
gpgpu_n_load_insn  = 1553984
gpgpu_n_store_insn = 2071680
gpgpu_n_shmem_insn = 782208
gpgpu_n_tex_insn = 0
gpgpu_n_const_mem_insn = 0
gpgpu_n_param_mem_insn = 3498476
gpgpu_n_shmem_bkconflict = 0
gpgpu_n_cache_bkconflict = 0
gpgpu_n_intrawarp_mshr_merge = 0
gpgpu_n_cmem_portconflict = 2919
gpgpu_stall_shd_mem[c_mem][bk_conf] = 2919
gpgpu_stall_shd_mem[c_mem][mshr_rc] = 0
gpgpu_stall_shd_mem[c_mem][icnt_rc] = 0
gpgpu_stall_shd_mem[t_mem][mshr_rc] = 0
gpgpu_stall_shd_mem[t_mem][icnt_rc] = 0
gpgpu_stall_shd_mem[s_mem][bk_conf] = 0
gpgpu_stall_shd_mem[gl_mem][bk_conf] = 0
gpgpu_stall_shd_mem[gl_mem][coal_stall] = 1722977
gpgpu_stall_shd_mem[g_mem_ld][mshr_rc] = 0
gpgpu_stall_shd_mem[g_mem_ld][icnt_rc] = 0
gpgpu_stall_shd_mem[g_mem_ld][wb_icnt_rc] = 0
gpgpu_stall_shd_mem[g_mem_ld][wb_rsrv_fail] = 0
gpgpu_stall_shd_mem[g_mem_st][mshr_rc] = 0
gpgpu_stall_shd_mem[g_mem_st][icnt_rc] = 0
gpgpu_stall_shd_mem[g_mem_st][wb_icnt_rc] = 0
gpgpu_stall_shd_mem[g_mem_st][wb_rsrv_fail] = 0
gpgpu_stall_shd_mem[l_mem_ld][mshr_rc] = 0
gpgpu_stall_shd_mem[l_mem_ld][icnt_rc] = 0
gpgpu_stall_shd_mem[l_mem_ld][wb_icnt_rc] = 0
gpgpu_stall_shd_mem[l_mem_ld][wb_rsrv_fail] = 0
gpgpu_stall_shd_mem[l_mem_st][mshr_rc] = 0
gpgpu_stall_shd_mem[l_mem_st][icnt_rc] = 0
gpgpu_stall_shd_mem[l_mem_ld][wb_icnt_rc] = 0
gpgpu_stall_shd_mem[l_mem_ld][wb_rsrv_fail] = 0
gpu_reg_bank_conflict_stalls = 0
Warp Occupancy Distribution:
Stall:2645351	W0_Idle:643936	W0_Scoreboard:74133	W1:1472	W2:512	W3:0	W4:512	W5:0	W6:0	W7:1088	W8:512	W9:0	W10:0	W11:0	W12:0	W13:0	W14:0	W15:0	W16:512	W17:0	W18:32955	W19:0	W20:0	W21:0	W22:0	W23:0	W24:0	W25:0	W26:0	W27:0	W28:0	W29:0	W30:0	W31:0	W32:671605
maxmrqlatency = 451 
maxdqlatency = 0 
maxmflatency = 1274 
averagemflatency = 513 
max_icnt2mem_latency = 2759 
max_icnt2sh_latency = 172774 
mrq_lat_table:52934 	3336 	4881 	14107 	34718 	56817 	49202 	14723 	436 	0 	0 	0 	0 	0 	0 	0 	0 	0 	0 	0 	0 	0 	0 	0 	0 	0 	0 	0 	0 	0 	0 	0 	
dq_lat_table:0 	0 	0 	0 	0 	0 	0 	0 	0 	0 	0 	0 	0 	0 	0 	0 	0 	0 	0 	0 	0 	0 	0 	0 	0 	0 	0 	0 	0 	0 	0 	0 	
mf_lat_table:0 	0 	0 	0 	0 	0 	1202 	16522 	83818 	102817 	543 	0 	0 	0 	0 	0 	0 	0 	0 	0 	0 	0 	0 	0 	0 	0 	0 	0 	0 	0 	0 	0 	
icnt2mem_lat_table:232 	8600 	2556 	4067 	23206 	41155 	33127 	39388 	50414 	3009 	101 	12 	0 	0 	0 	0 	0 	0 	0 	0 	0 	0 	0 	0 	
icnt2sh_lat_table:97 	31493 	12855 	5618 	399 	0 	0 	0 	0 	0 	0 	0 	0 	0 	18013 	34188 	62124 	40115 	0 	0 	0 	0 	0 	0 	
mf_lat_pw_table:0 	0 	0 	0 	0 	0 	6 	12 	144 	177 	0 	0 	0 	0 	0 	0 	0 	0 	0 	0 	0 	0 	0 	0 	0 	0 	0 	0 	0 	0 	0 	0 	
maximum concurrent accesses to same row:
dram[0]:        28        21        46        21        55        21        21        22        17        34        26        24        34        27        26        34 
dram[1]:        21        21        26        20        54        22        27        24        23        22        34        31        35        19        26        42 
dram[2]:        25        21        46        20        71        20        21        35        18        37        34        24        28        21        21        26 
dram[3]:        43        26        67        21        70        22        27        24        23        23        26        40        45        21        21        45 
dram[4]:        54        22        54        38        71        26        26        24        22        26        33        38        46        15        23        36 
maximum service time to same row:
dram[0]:      3890      8006      4552      3992      8098      6862      7876      9465      5691      3016      9767      5938      2643      6082      6126      2188 
dram[1]:      4098      7934      4071      5842      8100      6856      3055      9445      5856      2364      9863      5978      2458      6074      5986      3484 
dram[2]:      5904      7996      4535      5934      8112      6846      8660      9443      5916      3252      9859      5606      2475      6192      5616      2653 
dram[3]:      5860      7978      5383      6198      8106      6906      8671      9423      5600      2484      9831      5986      2845      6252      5614      3108 
dram[4]:      5442      7988      5410      6143      7964      6890      8278      9435      5688      2850      9767      5992      3324      6296      5622      3426 
average row accesses per activate:
dram[0]:  3.785206  3.842917  4.116110  3.875530  4.242047  4.020520  4.159560  4.001357  3.994660  3.878788  3.842520  4.028112  3.885073  3.933610  4.101865  3.867978 
dram[1]:  3.715278  3.833566  3.985994  3.974026  4.268698  3.938585  4.081660  4.198276  4.040596  3.920530  3.883134  4.214085  3.946019  3.853857  4.082857  4.069016 
dram[2]:  3.744413  3.754410  3.990155  3.985611  4.364154  3.851562  4.322350  4.067867  4.118384  4.056552  3.938338  4.165278  3.695707  3.947149  4.014184  3.927557 
dram[3]:  3.759441  3.778386  3.932227  4.049635  4.242382  4.090404  4.263083  4.037396  4.076923  3.991848  3.862978  4.131868  3.705357  3.819163  3.810738  3.823448 
dram[4]:  3.608931  3.743207  4.035511  4.041116  4.338048  4.090529  4.426900  4.009602  3.836576  4.185553  3.833552  3.915475  3.686717  3.676129  3.939142  3.899859 
average row locality = 231154/58171 = 3.973698
number of total memory accesses made:
dram[0]:         0         0         0         0         0         0         0         0         0         0         0         0         0         0         0         0 
dram[1]:         0         0         0         0         0         0         0         0         0         0         0         0         0         0         0         0 
dram[2]:         0         0         0         0         0         0         0         0         0         0         0         0         0         0         0         0 
dram[3]:         0         0         0         0         0         0         0         0         0         0         0         0         0         0         0         0 
dram[4]:         0         0         0         0         0         0         0         0         0         0         0         0         0         0         0         0 
total accesses: 0
min_bank_accesses = 0!
min_chip_accesses = 0!
number of total read accesses:
dram[0]:      1098      1155      1182      1123      1238      1189      1197      1174      1219      1189      1202      1260      1217      1137      1200      1155 
dram[1]:      1110      1169      1195      1134      1242      1197      1203      1168      1216      1191      1196      1242      1212      1137      1206      1162 
dram[2]:      1116      1183      1192      1134      1237      1195      1186      1167      1195      1182      1196      1249      1207      1145      1197      1172 
dram[3]:      1121      1172      1190      1129      1227      1184      1182      1157      1197      1184      1204      1259      1209      1147      1207      1174 
dram[4]:      1114      1161      1183      1108      1228      1182      1188      1171      1206      1188      1207      1260      1222      1149      1215      1164 
total reads: 94757
bank skew: 1260/1098 = 1.15
chip skew: 18980/18935 = 1.00
number of total write accesses:
dram[0]:      1563      1585      1654      1617      1829      1750      1827      1775      1773      1755      1726      1749      1724      1707      1659      1599 
dram[1]:      1565      1572      1651      1620      1840      1753      1846      1754      1770      1769      1728      1750      1712      1711      1652      1609 
dram[2]:      1565      1584      1645      1636      1831      1763      1831      1770      1762      1759      1742      1750      1720      1693      1633      1593 
dram[3]:      1567      1590      1653      1645      1836      1757      1832      1758      1771      1754      1728      1749      1696      1683      1632      1598 
dram[4]:      1553      1594      1658      1644      1839      1755      1840      1752      1752      1767      1718      1751      1720      1700      1633      1601 
total reads: 136397
bank skew: 1846/1553 = 1.19
chip skew: 27302/27249 = 1.00
average mf latency per bank:
dram[0]:        453       465       449       452       452       460       446       446       451       466       448       456       467       456       452       464
dram[1]:        455       456       442       443       439       454       438       438       443       452       445       441       454       447       447       456
dram[2]:        448       455       446       450       437       454       441       441       450       453       443       441       459       445       455       463
dram[3]:        451       464       456       460       445       457       447       459       450       461       452       459       465       463       461       465
dram[4]:        465       469       449       461       451       465       450       462       457       470       461       465       470       462       468       464
maximum mf latency per bank:
dram[0]:       1226      1116      1020      1181      1243      1138      1079      1204      1093      1139      1082      1039      1209      1063      1044      1153
dram[1]:       1048      1080      1199      1089      1108      1274      1004      1051      1033      1158       999      1062      1138      1156      1089      1150
dram[2]:       1089      1269      1199      1071      1176      1248      1116      1131      1087      1129      1010      1189      1055      1165      1148      1154
dram[3]:       1138      1068      1032      1149      1108      1128      1168      1028      1167      1018      1040      1239      1211      1185      1051      1156
dram[4]:       1163      1123      1012      1220      1140      1103      1100      1101      1054      1252      1032      1174      1274      1154      1030      1159

Number of Memory Banks Accessed per Memory Operation per Warp (from 0):
0	0	0	0	0	0	0	0	0	0	0	0	0	0	0	0	0	0	0	0	0	0	0	0	0	0	0	0	0	0	0	0	0	0	0	0	0	0	0	0	0	0	0	0	0	0	0	0	0	0	0	0	0	0	0	0	0	0	0	0	0	0	0	0	0	0	0	0	0	0	0	0	0	0	0	0	0	0	0	0	
Average # of Memory Banks Accessed per Memory Operation per Warp=-nan

position of mrq chosen
0	0	0	0	0	0	0	0	0	0	0	0	0	0	0	0	

average position of mrq chosen = -nan
gpgpu_l2_write_miss = 0
gpgpu_l2_write_access = 0
gpgpu_l2_read_miss = 0
gpgpu_l2_read_access = 0
Cache L2_bank_000:
MSHR contents

DRAM[0]: 16 bks, busW=4 BL=8 CL=12, tRRD=2 tCCD=6, tRCD=12 tRAS=28 tRP=12 tRC=40
n_cmd=259160 n_nop=168269 n_act=11637 n_pre=11621 n_req=46227 n_rd=37870 n_write=29763 bw_util=0.5219
n_activity=236618 dram_eff=0.5717
bk0: 2196a 190858i bk1: 2310a 188723i bk2: 2364a 185370i bk3: 2246a 186050i bk4: 2476a 187670i bk5: 2378a 184383i bk6: 2394a 186247i bk7: 2348a 185388i bk8: 2438a 183560i bk9: 2378a 181050i bk10: 2404a 183328i bk11: 2520a 179004i bk12: 2434a 174238i bk13: 2274a 171329i bk14: 2400a 156248i bk15: 2310a 118253i 
dram_util_bins: 0 0 0 0 0 0 0 0 0 0
dram_eff_bins: 0 0 0 0 0 0 0 0 0 0
mrqq: max=16 avg=12.0984
Cache L2_bank_001:
MSHR contents

DRAM[1]: 16 bks, busW=4 BL=8 CL=12, tRRD=2 tCCD=6, tRCD=12 tRAS=28 tRP=12 tRC=40
n_cmd=259160 n_nop=168331 n_act=11575 n_pre=11559 n_req=46282 n_rd=37960 n_write=29735 bw_util=0.5224
n_activity=236965 dram_eff=0.5714
bk0: 2220a 190567i bk1: 2338a 189498i bk2: 2390a 185280i bk3: 2268a 187563i bk4: 2484a 187543i bk5: 2394a 184945i bk6: 2406a 185985i bk7: 2336a 185984i bk8: 2432a 183461i bk9: 2382a 181818i bk10: 2392a 184363i bk11: 2484a 179397i bk12: 2424a 175332i bk13: 2274a 171369i bk14: 2412a 158736i bk15: 2324a 119035i 
dram_util_bins: 0 0 0 0 0 0 0 0 0 0
dram_eff_bins: 0 0 0 0 0 0 0 0 0 0
mrqq: max=16 avg=12.024
Cache L2_bank_002:
MSHR contents

DRAM[2]: 16 bks, busW=4 BL=8 CL=12, tRRD=2 tCCD=6, tRCD=12 tRAS=28 tRP=12 tRC=40
n_cmd=259160 n_nop=168405 n_act=11580 n_pre=11564 n_req=46230 n_rd=37906 n_write=29705 bw_util=0.5218
n_activity=236511 dram_eff=0.5717
bk0: 2232a 191074i bk1: 2366a 188993i bk2: 2384a 186484i bk3: 2268a 186908i bk4: 2474a 187546i bk5: 2390a 184791i bk6: 2372a 184664i bk7: 2334a 185775i bk8: 2390a 183079i bk9: 2364a 180137i bk10: 2392a 182886i bk11: 2498a 179174i bk12: 2414a 174833i bk13: 2290a 172696i bk14: 2394a 158874i bk15: 2344a 119124i 
dram_util_bins: 0 0 0 0 0 0 0 0 0 0
dram_eff_bins: 0 0 0 0 0 0 0 0 0 0
mrqq: max=16 avg=12.0315
Cache L2_bank_003:
MSHR contents

DRAM[3]: 16 bks, busW=4 BL=8 CL=12, tRRD=2 tCCD=6, tRCD=12 tRAS=28 tRP=12 tRC=40
n_cmd=259160 n_nop=168261 n_act=11670 n_pre=11654 n_req=46192 n_rd=37886 n_write=29689 bw_util=0.5215
n_activity=236587 dram_eff=0.5712
bk0: 2242a 191102i bk1: 2344a 188018i bk2: 2380a 185588i bk3: 2258a 186169i bk4: 2454a 187903i bk5: 2368a 183570i bk6: 2364a 184640i bk7: 2314a 186187i bk8: 2394a 183441i bk9: 2368a 180933i bk10: 2408a 183915i bk11: 2518a 179453i bk12: 2418a 174437i bk13: 2294a 173489i bk14: 2414a 158951i bk15: 2348a 118503i 
dram_util_bins: 0 0 0 0 0 0 0 0 0 0
dram_eff_bins: 0 0 0 0 0 0 0 0 0 0
mrqq: max=16 avg=12.0348
Cache L2_bank_004:
MSHR contents

DRAM[4]: 16 bks, busW=4 BL=8 CL=12, tRRD=2 tCCD=6, tRCD=12 tRAS=28 tRP=12 tRC=40
n_cmd=259160 n_nop=168139 n_act=11712 n_pre=11696 n_req=46223 n_rd=37892 n_write=29721 bw_util=0.5218
n_activity=236283 dram_eff=0.5723
bk0: 2228a 190285i bk1: 2322a 188440i bk2: 2366a 185324i bk3: 2216a 186329i bk4: 2456a 187236i bk5: 2364a 182928i bk6: 2376a 183773i bk7: 2342a 184893i bk8: 2412a 182853i bk9: 2376a 180959i bk10: 2414a 183419i bk11: 2520a 179271i bk12: 2444a 174910i bk13: 2298a 171568i bk14: 2430a 157831i bk15: 2328a 118560i 
dram_util_bins: 0 0 0 0 0 0 0 0 0 0
dram_eff_bins: 0 0 0 0 0 0 0 0 0 0
mrqq: max=16 avg=12.0542
Cache L2_bank_000:	Size = 131072 B (64 Set x 16-way x 128 byte line)
		Access = 41158, Miss = 18935 (0.46), PendingHit = 14764 (0.359)
Cache L2_bank_001:	Size = 131072 B (64 Set x 16-way x 128 byte line)
		Access = 41146, Miss = 18980 (0.461), PendingHit = 14788 (0.359)
Cache L2_bank_002:	Size = 131072 B (64 Set x 16-way x 128 byte line)
		Access = 41130, Miss = 18953 (0.461), PendingHit = 14769 (0.359)
Cache L2_bank_003:	Size = 131072 B (64 Set x 16-way x 128 byte line)
		Access = 41253, Miss = 18943 (0.459), PendingHit = 14751 (0.358)
Cache L2_bank_004:	Size = 131072 B (64 Set x 16-way x 128 byte line)
		Access = 41180, Miss = 18946 (0.46), PendingHit = 14765 (0.359)
L2 Cache Total Miss Rate = 0.460

icnt_total_pkts_mem_to_simt=411163
icnt_total_pkts_simt_to_mem=360307

LD_mem_lat_dist  0 0 0 0 0 0 0 0 0 0 0 0 0 0 0 0 0 0 0 0 0 0 0 0 0 0 0
ST_mem_lat_dist  0 0 0 0 0 0 0 0 0 0 0 0 0 0 0 0 0 0 0 0 0 0 0 0 0 0 0
Traffic 0 Stat
%=================================
% Average latency = 175.692
% Accepted packets = 0 at node 0 (avg = 0.0486641)
lat(3) = 175.692;
thru(3,:) = [ 0 0 0 0 0 0 0 0 0 0 0 0 0 0 0.223888 0.223805 0.223828 0.223812 0.223942 0 0 0 0 ];
% latency change    = 0.927431
% throughput change = 0.248452
Traffic 1 Stat
%=================================
% Average latency = 3.11751
% Accepted packets = 0 at node 14 (avg = 0.0508262)
lat(4) = 3.11751;
thru(4,:) = [ 0.111073 0.0856355 0.110101 0.054111 0.0524547 0.0546048 0.0524069 0.105578 0.0564522 0.105976 0.0518654 0.113255 0.105546 0.109942 0 0 0 0 0 0 0 0 0 ];
% latency change    = 55.3567
% throughput change = 0.0425389
----------------------------Interconnect-DETAILS---------------------------------=======Traffic[0]class0 ======
Traffic[0]class0Overall average latency = 119.076 (2 samples)
Traffic[0]class0Overall average accepted rate = 0.0305523 (2 samples)
Traffic[0]class0Overall min accepted rate = 0 (2 samples)
traffic_manager/latency_stat_0_freq = [ 0 2813 2857 603 656 368 340 301 306 318 359 296 301 314 401 440 2032 2673 1931 1936 1932 2154 1996 2200 2009 2233 2239 2302 2148 2287 2204 2268 2112 2230 1952 2095 1989 2055 1870 1866 1807 1763 1618 1692 1507 1587 1447 1507 1515 1433 1282 1282 1135 1248 1121 1159 1166 1031 1046 1082 985 990 847 928 917 879 809 830 798 796 820 805 771 630 689 667 684 589 645 538 561 609 646 551 549 533 490 521 537 458 461 452 519 453 462 442 472 427 443 396 422 431 392 378 395 372 405 379 322 327 353 368 375 306 310 315 306 331 295 265 304 276 262 317 269 242 289 292 321 274 277 259 277 257 265 267 250 259 242 247 231 244 238 244 251 243 201 240 213 238 195 238 246 241 220 206 231 211 248 225 239 203 200 224 249 206 207 249 214 209 199 213 219 253 202 256 188 218 192 219 210 228 207 211 204 223 199 199 191 206 182 229 202 219 213 213 217 201 169 209 164 186 186 209 197 180 203 181 166 195 145 164 157 162 167 178 141 178 168 181 157 146 174 163 186 154 163 168 168 139 135 158 136 150 153 156 157 147 181 138 142 143 130 145 154 125 134 170 167 145 132 151 140 165 134 141 159 164 134 156 150 188 141 153 142 161 122 169 142 182 146 151 137 158 130 131 152 148 146 142 134 150 148 145 127 137 131 122 158 145 145 150 120 128 119 134 141 141 134 161 149 124 133 124 139 130 142 145 136 131 125 113 143 112 130 131 117 124 131 141 137 128 117 107 121 89 114 110 118 124 102 120 123 128 113 134 116 135 135 93 117 100 112 109 122 132 127 126 119 126 102 116 113 95 131 111 110 95 101 91 111 97 96 101 114 110 105 115 98 111 109 101 111 99 108 84 98 114 85 102 106 95 111 101 106 113 104 115 112 95 87 108 109 101 97 99 102 81 97 97 105 92 96 95 80 82 108 79 87 79 101 86 107 66 92 88 108 87 85 89 84 94 102 108 89 73 76 82 82 82 71 86 81 96 91 83 78 101 75 107 88 89 85 70 87 83 82 101 78 109 97 104 71 97 78 103 90 102 88 78 87 95 89 89 86 95 92 84 86 86 92 98 95 99 83 91 81 89 87 83 68 73 76 89 89 89 83 87 79 89 90 98 71 99 103 78 77 77 63 80 66 78 62 67 87 79 95 84 79 72 94 95 95 65 83 93 82 82 98 83 81 78 94 89 87 75 89 73 82 77 83 67 85 81 76 88 94 91 81 70 95 107 106 89 80 87 98 107 94 88 96 101 71 86 94 95 100 96 85 87 86 92 86 87 87 86 87 78 103 99 100 82 83 81 101 68 91 84 67 78 89 72 78 68 86 84 89 69 71 66 73 74 63 66 71 54 77 66 63 61 68 60 59 55 53 58 74 60 57 60 68 40 58 47 42 53 63 52 53 50 51 47 57 42 64 48 57 58 51 58 57 46 51 54 50 59 57 57 42 66 48 58 53 69 53 44 49 45 67 45 44 54 47 51 40 58 38 37 57 66 62 48 44 55 52 64 45 59 47 54 70 51 57 44 52 57 49 70 46 56 57 57 43 52 38 56 47 52 41 46 45 62 65 47 42 45 51 46 45 57 38 66 42 59 40 49 38 52 50 39 37 54 43 42 36 48 38 38 31 41 33 44 36 34 28 44 35 41 39 36 36 29 27 42 27 34 39 38 29 34 28 49 37 34 34 32 32 32 37 37 36 37 35 26 26 38 49 33 38 40 39 32 30 28 26 32 26 25 28 22 33 29 40 28 36 22 30 26 25 37 28 45 28 38 31 36 41 33 30 38 22 30 22 37 25 33 26 42 46 44 45 39 35 39 34 38 34 38 32 32 29 30 38 30 28 39 41 29 23 40 31 27 23 37 33 32 32 32 43 34 32 33 29 24 27 21 24 22 36 27 23 31 18 21 22 21 22 27 28 24 16 36 29 14 30 34 14 26 19 16 13 28 19 23 18 23 23 21 22 11 20 24 24 29 20 19 20 24 18 19 16 27 12 23 17 25 17 19 21 27 24 15 13 17 17 12 24 29 20 19 13 19 11 16 20 19 16 19 22 9 21 14 17 16 15 14 17 18 19 18 20 20 20 23 12 17 18 12 21 19 18 13 16 16 13 20 12 19 13 11 8 15 11 14 8 13 17 20 14 17 13 12 11 17 14 14 7 17 12 7 16 17 7 11 11 14 9 10 13 13 6 9 16 14 15 11 10 11 9 12 11 15 13 10 4 11 5 10 5 10 11 10 8 11 5 14 6 11 5 416 ];
Traffic[0]class1Average hops = 1 (205867 samples)
traffic_manager/hop_stats_freq = [ 0 205867 0 0 0 0 0 0 0 0 0 0 0 0 0 0 0 0 0 0 ];
=======Traffic[1]class0 ======
Traffic[1]class0Overall average latency = 7.93367 (2 samples)
Traffic[1]class0Overall average accepted rate = 0.0557905 (2 samples)
Traffic[1]class0Overall min accepted rate = 0 (2 samples)
traffic_manager/latency_stat_0_freq = [ 0 116356 12632 4164 5952 30510 6011 3270 4832 2759 2009 1274 1118 855 763 547 863 478 362 328 242 274 215 151 135 112 142 58 58 44 56 72 31 35 38 30 32 24 14 14 8 14 10 3 3 5 6 0 8 5 1 9 8 0 1 4 3 0 0 1 4 0 0 0 0 0 0 0 0 0 0 0 0 0 0 0 0 0 0 0 0 0 0 0 0 0 0 0 0 0 0 0 0 0 0 0 0 0 0 0 0 0 0 0 0 0 0 0 0 0 0 0 0 0 0 0 0 0 0 0 0 0 0 0 0 0 0 0 0 0 0 0 0 0 0 0 0 0 0 0 0 0 0 0 0 0 0 0 0 0 0 0 0 0 0 0 0 0 0 0 0 0 0 0 0 0 0 0 0 0 0 0 0 0 0 0 0 0 0 0 0 0 0 0 0 0 0 0 0 0 0 0 0 0 0 0 0 0 0 0 0 0 0 0 0 0 0 0 0 0 0 0 0 0 0 0 0 0 0 0 0 0 0 0 0 0 0 0 0 0 0 0 0 0 0 0 0 0 0 0 0 0 0 0 0 0 0 0 0 0 0 0 0 0 0 0 0 0 0 0 0 0 0 0 0 0 0 0 0 0 0 0 0 0 0 0 0 0 0 0 0 0 0 0 0 0 0 0 0 0 0 0 0 0 0 0 0 0 0 0 0 0 0 0 0 0 0 0 0 0 0 0 0 0 0 0 0 0 0 0 0 0 0 0 0 0 0 0 0 0 0 0 0 0 0 0 0 0 0 0 0 0 0 0 0 0 0 0 0 0 0 0 0 0 0 0 0 0 0 0 0 0 0 0 0 0 0 0 0 0 0 0 0 0 0 0 0 0 0 0 0 0 0 0 0 0 0 0 0 0 0 0 0 0 0 0 0 0 0 0 0 0 0 0 0 0 0 0 0 0 0 0 0 0 0 0 0 0 0 0 0 0 0 0 0 0 0 0 0 0 0 0 0 0 0 0 0 0 0 0 0 0 0 0 0 0 0 0 0 0 0 0 0 0 0 0 0 0 0 0 0 0 0 0 0 0 0 0 0 0 0 0 0 0 0 0 0 0 0 0 0 0 0 0 0 0 0 0 0 0 0 0 0 0 0 0 0 0 0 0 0 0 0 0 0 0 0 0 0 0 0 0 0 0 0 0 0 0 0 0 0 0 0 0 0 0 0 0 0 0 0 0 0 0 0 0 0 0 0 0 0 0 0 0 0 0 0 0 0 0 0 0 0 0 0 0 0 0 0 0 0 0 0 0 0 0 0 0 0 0 0 0 0 0 0 0 0 0 0 0 0 0 0 0 0 0 0 0 0 0 0 0 0 0 0 0 0 0 0 0 0 0 0 0 0 0 0 0 0 0 0 0 0 0 0 0 0 0 0 0 0 0 0 0 0 0 0 0 0 0 0 0 0 0 0 0 0 0 0 0 0 0 0 0 0 0 0 0 0 0 0 0 0 0 0 0 0 0 0 0 0 0 0 0 0 0 0 0 0 0 0 0 0 0 0 0 0 0 0 0 0 0 0 0 0 0 0 0 0 0 0 0 0 0 0 0 0 0 0 0 0 0 0 0 0 0 0 0 0 0 0 0 0 0 0 0 0 0 0 0 0 0 0 0 0 0 0 0 0 0 0 0 0 0 0 0 0 0 0 0 0 0 0 0 0 0 0 0 0 0 0 0 0 0 0 0 0 0 0 0 0 0 0 0 0 0 0 0 0 0 0 0 0 0 0 0 0 0 0 0 0 0 0 0 0 0 0 0 0 0 0 0 0 0 0 0 0 0 0 0 0 0 0 0 0 0 0 0 0 0 0 0 0 0 0 0 0 0 0 0 0 0 0 0 0 0 0 0 0 0 0 0 0 0 0 0 0 0 0 0 0 0 0 0 0 0 0 0 0 0 0 0 0 0 0 0 0 0 0 0 0 0 0 0 0 0 0 0 0 0 0 0 0 0 0 0 0 0 0 0 0 0 0 0 0 0 0 0 0 0 0 0 0 0 0 0 0 0 0 0 0 0 0 0 0 0 0 0 0 0 0 0 0 0 0 0 0 0 0 0 0 0 0 0 0 0 0 0 0 0 0 0 0 0 0 0 0 0 0 0 0 0 0 0 0 0 0 0 0 0 0 0 0 0 0 0 0 0 0 0 0 0 0 0 0 0 0 0 0 0 0 0 0 0 0 0 0 0 0 0 0 0 0 0 0 0 0 0 0 0 0 0 0 0 0 0 0 0 0 0 ];
Traffic[1]class1Average hops = 1 (205867 samples)
traffic_manager/hop_stats_freq = [ 0 205867 0 0 0 0 0 0 0 0 0 0 0 0 0 0 0 0 0 0 ];
----------------------------END-of-Interconnect-DETAILS-------------------------

gpgpu_simulation_time = 0 days, 0 hrs, 1 min, 40 sec (100 sec)
gpgpu_simulation_rate = 213945 (inst/sec)
gpgpu_simulation_rate = 1727 (cycle/sec)

kernel '_Z17histo_main_kernelP6uchar4jjjjjPjS1_S1_' transfer to GPU hardware scheduler
kernel_name = _Z17histo_main_kernelP6uchar4jjjjjPjS1_S1_ 
kernel_launch_uid = 3 
gpu_sim_cycle = 492919
gpu_sim_insn = 157206464
gpu_ipc =     318.9296
gpu_tot_sim_cycle = 665694
gpu_tot_sim_insn = 178600998
gpu_tot_ipc =     268.2929
gpu_tot_issued_cta = 0
gpu_stall_dramfull = 718066
gpu_stall_icnt2sh    = 1386420
gpu_total_sim_rate=319500
Cache L1D_000:	Size = 16384 B (32 Set x 4-way x 128 byte line)
		Access = 135264, Miss = 34961 (0.258), PendingHit = 99411 (0.735)
Cache L1D_001:	Size = 16384 B (32 Set x 4-way x 128 byte line)
		Access = 134556, Miss = 33776 (0.251), PendingHit = 99732 (0.741)
Cache L1D_002:	Size = 16384 B (32 Set x 4-way x 128 byte line)
		Access = 134710, Miss = 34474 (0.256), PendingHit = 99474 (0.738)
Cache L1D_003:	Size = 16384 B (32 Set x 4-way x 128 byte line)
		Access = 133300, Miss = 32881 (0.247), PendingHit = 99659 (0.748)
Cache L1D_004:	Size = 16384 B (32 Set x 4-way x 128 byte line)
		Access = 132616, Miss = 32314 (0.244), PendingHit = 99510 (0.75)
Cache L1D_005:	Size = 16384 B (32 Set x 4-way x 128 byte line)
		Access = 132910, Miss = 32552 (0.245), PendingHit = 99672 (0.75)
Cache L1D_006:	Size = 16384 B (32 Set x 4-way x 128 byte line)
		Access = 133240, Miss = 32913 (0.247), PendingHit = 99630 (0.748)
Cache L1D_007:	Size = 16384 B (32 Set x 4-way x 128 byte line)
		Access = 134574, Miss = 34189 (0.254), PendingHit = 99391 (0.739)
Cache L1D_008:	Size = 16384 B (32 Set x 4-way x 128 byte line)
		Access = 132592, Miss = 32728 (0.247), PendingHit = 99469 (0.75)
Cache L1D_009:	Size = 16384 B (32 Set x 4-way x 128 byte line)
		Access = 134716, Miss = 34266 (0.254), PendingHit = 99339 (0.737)
Cache L1D_010:	Size = 16384 B (32 Set x 4-way x 128 byte line)
		Access = 132858, Miss = 32396 (0.244), PendingHit = 99448 (0.749)
Cache L1D_011:	Size = 16384 B (32 Set x 4-way x 128 byte line)
		Access = 135140, Miss = 35041 (0.259), PendingHit = 99332 (0.735)
Cache L1D_012:	Size = 16384 B (32 Set x 4-way x 128 byte line)
		Access = 134700, Miss = 34245 (0.254), PendingHit = 99332 (0.737)
Cache L1D_013:	Size = 16384 B (32 Set x 4-way x 128 byte line)
		Access = 134502, Miss = 34394 (0.256), PendingHit = 99436 (0.739)
total_dl1_misses=471130
total_dl1_accesses=1875678
total_dl1_miss_rate= 0.251179
Shader 0 dynamic_warp_id issue ditsribution:
dynamic_warp_id:
0, 1, 2, 3, 4, 5, 6, 7, 8, 9, 10, 11, 12, 13, 14, 15, 16, 17, 18, 19, 20, 21, 22, 23, 24, 25, 26, 27, 28, 29, 30, 31, 32, 33, 34, 35, 36, 37, 38, 39, 40, 41, 42, 43, 44, 45, 46, 47, 48, 49, 50, 51, 52, 53, 54, 55, 56, 57, 58, 59, 60, 61, 62, 63, 64, 65, 66, 67, 68, 69, 70, 71, 72, 73, 74, 75, 76, 77, 78, 79, 80, 81, 82, 83, 84, 85, 86, 87, 88, 89, 90, 91, 92, 93, 94, 95, 96, 97, 98, 99, 100, 101, 102, 103, 104, 105, 106, 107, 108, 109, 110, 111, 112, 113, 114, 115, 116, 117, 118, 119, 120, 121, 122, 123, 124, 125, 126, 127, 128, 129, 130, 131, 132, 133, 134, 135, 136, 137, 138, 139, 140, 141, 142, 143, 144, 145, 146, 147, 148, 149, 150, 151, 152, 153, 154, 155, 156, 157, 158, 159, 160, 161, 162, 163, 164, 165, 166, 167, 168, 169, 170, 171, 172, 173, 174, 175, 176, 177, 178, 179, 180, 181, 182, 183, 184, 185, 186, 187, 188, 189, 190, 191, 192, 193, 194, 195, 196, 197, 198, 199, 200, 201, 202, 203, 204, 205, 206, 207, 208, 209, 210, 211, 212, 213, 214, 215, 216, 217, 218, 219, 220, 221, 222, 223, 224, 225, 226, 227, 228, 229, 230, 231, 232, 233, 234, 235, 236, 237, 238, 239, 240, 241, 242, 243, 244, 245, 246, 247, 248, 249, 250, 251, 252, 253, 254, 255, 256, 257, 258, 259, 260, 261, 262, 263, 264, 265, 266, 267, 268, 269, 270, 271, 272, 273, 274, 275, 276, 277, 278, 279, 280, 281, 282, 283, 284, 285, 286, 287, 288, 289, 290, 291, 292, 293, 294, 295, 296, 297, 298, 299, 300, 301, 302, 303, 304, 305, 306, 307, 308, 309, 310, 311, 312, 313, 314, 315, 316, 317, 318, 319, 320, 321, 322, 323, 324, 325, 326, 327, 328, 329, 330, 331, 332, 333, 334, 335, 336, 337, 338, 339, 340, 341, 342, 343, 344, 345, 346, 347, 348, 349, 350, 351, 352, 353, 354, 355, 356, 357, 358, 359, 360, 361, 362, 363, 364, 365, 366, 367, 368, 369, 370, 371, 372, 373, 374, 375, 376, 377, 378, 379, 380, 381, 382, 383, 384, 385, 386, 387, 388, 389, 390, 391, 392, 393, 394, 395, 396, 397, 398, 399, 400, 401, 402, 403, 404, 405, 406, 407, 408, 409, 410, 411, 412, 413, 414, 415, 
distro:
269, 201, 188, 188, 175, 175, 175, 175, 162, 162, 162, 162, 162, 162, 162, 162, 269, 201, 188, 188, 175, 175, 175, 175, 162, 162, 162, 162, 162, 162, 162, 162, 269, 201, 188, 188, 175, 175, 175, 175, 162, 162, 162, 162, 162, 162, 162, 162, 269, 201, 188, 188, 175, 175, 175, 175, 162, 162, 162, 162, 162, 162, 162, 162, 269, 201, 188, 188, 175, 175, 175, 175, 162, 162, 162, 162, 162, 162, 162, 162, 269, 201, 188, 188, 175, 175, 175, 175, 162, 162, 162, 162, 162, 162, 162, 162, 507, 507, 507, 507, 507, 507, 507, 507, 507, 507, 507, 507, 507, 507, 507, 507, 507, 507, 507, 507, 507, 507, 507, 507, 507, 507, 507, 507, 507, 507, 507, 507, 507, 507, 507, 507, 507, 507, 507, 507, 507, 507, 507, 507, 507, 507, 507, 507, 507, 507, 507, 507, 507, 507, 507, 507, 507, 507, 507, 507, 507, 507, 507, 507, 507, 507, 507, 507, 507, 507, 507, 507, 507, 507, 507, 507, 507, 507, 507, 507, 507, 507, 507, 507, 507, 507, 507, 507, 507, 507, 507, 507, 507, 507, 507, 507, 2773, 2773, 2773, 2773, 2773, 2773, 2773, 2773, 2773, 2773, 2773, 2773, 2773, 2773, 2773, 2773, 1331, 1331, 1331, 1331, 1331, 1331, 1331, 1331, 1331, 1331, 1331, 1331, 1331, 1331, 1331, 1331, 1339, 1339, 1339, 1339, 1339, 1339, 1339, 1339, 1339, 1339, 1339, 1339, 1339, 1339, 1339, 1339, 1339, 1339, 1339, 1339, 1339, 1339, 1339, 1339, 1339, 1339, 1339, 1339, 1339, 1339, 1339, 1339, 1513, 1541, 1429, 1513, 1499, 1541, 1485, 1499, 1541, 1513, 1457, 1485, 1499, 1485, 1527, 1611, 3187, 3201, 3187, 3215, 3215, 3187, 3215, 3285, 3229, 3159, 3173, 3187, 3187, 3215, 3257, 3201, 3369, 3369, 3369, 3369, 3369, 3369, 3369, 3369, 3369, 3369, 3369, 3369, 3369, 3369, 3369, 3369, 3369, 3369, 3369, 3369, 3369, 3369, 3369, 3369, 3369, 3369, 3369, 3369, 3369, 3369, 3369, 3369, 3187, 3215, 3187, 3243, 3271, 3201, 3215, 3201, 3229, 3215, 3243, 3257, 3117, 3173, 3187, 3145, 3137, 3249, 3179, 3193, 3151, 3235, 3193, 3249, 3179, 3221, 3193, 3207, 3151, 3221, 3151, 3207, 1331, 1331, 1331, 1331, 1331, 1331, 1331, 1331, 1331, 1331, 1331, 1331, 1331, 1331, 1331, 1331, 1331, 1331, 1331, 1331, 1331, 1331, 1331, 1331, 1331, 1331, 1331, 1331, 1331, 1331, 1331, 1331, 1331, 1331, 1331, 1331, 1331, 1331, 1331, 1331, 1331, 1331, 1331, 1331, 1331, 1331, 1331, 1331, 1331, 1331, 1331, 1331, 1331, 1331, 1331, 1331, 1331, 1331, 1331, 1331, 1331, 1331, 1331, 1331, 
gpgpu_n_tot_thrd_icount = 225359360
gpgpu_n_tot_w_icount = 7042480
gpgpu_n_icache_hits = 4035118
gpgpu_n_icache_misses = 19911
gpgpu_n_l1dcache_read_hits = 11713
gpgpu_n_l1dcache_read_misses = 1863965
gpgpu_n_l1dcache_write_accesses = 154440
gpgpu_n_l1dcache_wirte_misses = 154440
gpgpu_n_tcache_hits = 0
gpgpu_n_tcache_misses = 0
gpgpu_n_ccache_hits = 592688
gpgpu_n_ccache_misses = 448
gpgpu_n_stall_shd_mem = 4699520
gpgpu_n_mem_read_local = 0
gpgpu_n_mem_write_local = 0
gpgpu_n_mem_read_global = 671962
gpgpu_n_mem_write_global = 154440
gpgpu_n_mem_texture = 0
gpgpu_n_mem_const = 14
gpgpu_n_load_insn  = 33768768
gpgpu_n_store_insn = 2071680
gpgpu_n_shmem_insn = 6867968
gpgpu_n_tex_insn = 0
gpgpu_n_const_mem_insn = 0
gpgpu_n_param_mem_insn = 37863916
gpgpu_n_shmem_bkconflict = 0
gpgpu_n_cache_bkconflict = 0
gpgpu_n_intrawarp_mshr_merge = 0
gpgpu_n_cmem_portconflict = 2919
gpgpu_stall_shd_mem[c_mem][bk_conf] = 2919
gpgpu_stall_shd_mem[c_mem][mshr_rc] = 0
gpgpu_stall_shd_mem[c_mem][icnt_rc] = 0
gpgpu_stall_shd_mem[t_mem][mshr_rc] = 0
gpgpu_stall_shd_mem[t_mem][icnt_rc] = 0
gpgpu_stall_shd_mem[s_mem][bk_conf] = 95112
gpgpu_stall_shd_mem[gl_mem][bk_conf] = 0
gpgpu_stall_shd_mem[gl_mem][coal_stall] = 4601489
gpgpu_stall_shd_mem[g_mem_ld][mshr_rc] = 0
gpgpu_stall_shd_mem[g_mem_ld][icnt_rc] = 0
gpgpu_stall_shd_mem[g_mem_ld][wb_icnt_rc] = 0
gpgpu_stall_shd_mem[g_mem_ld][wb_rsrv_fail] = 0
gpgpu_stall_shd_mem[g_mem_st][mshr_rc] = 0
gpgpu_stall_shd_mem[g_mem_st][icnt_rc] = 0
gpgpu_stall_shd_mem[g_mem_st][wb_icnt_rc] = 0
gpgpu_stall_shd_mem[g_mem_st][wb_rsrv_fail] = 0
gpgpu_stall_shd_mem[l_mem_ld][mshr_rc] = 0
gpgpu_stall_shd_mem[l_mem_ld][icnt_rc] = 0
gpgpu_stall_shd_mem[l_mem_ld][wb_icnt_rc] = 0
gpgpu_stall_shd_mem[l_mem_ld][wb_rsrv_fail] = 0
gpgpu_stall_shd_mem[l_mem_st][mshr_rc] = 0
gpgpu_stall_shd_mem[l_mem_st][icnt_rc] = 0
gpgpu_stall_shd_mem[l_mem_ld][wb_icnt_rc] = 0
gpgpu_stall_shd_mem[l_mem_ld][wb_rsrv_fail] = 0
gpu_reg_bank_conflict_stalls = 0
Warp Occupancy Distribution:
Stall:5062941	W0_Idle:1156163	W0_Scoreboard:4501934	W1:234474	W2:210470	W3:181146	W4:138692	W5:82446	W6:50806	W7:38790	W8:43856	W9:57666	W10:76300	W11:92400	W12:104846	W13:108710	W14:108192	W15:93310	W16:76042	W17:54698	W18:68543	W19:20720	W20:10248	W21:4886	W22:1792	W23:658	W24:196	W25:56	W26:0	W27:0	W28:0	W29:0	W30:0	W31:0	W32:5182537
maxmrqlatency = 451 
maxdqlatency = 0 
maxmflatency = 1274 
averagemflatency = 306 
max_icnt2mem_latency = 2759 
max_icnt2sh_latency = 172774 
mrq_lat_table:257771 	16206 	17690 	32506 	57007 	70393 	51822 	14825 	436 	0 	0 	0 	0 	0 	0 	0 	0 	0 	0 	0 	0 	0 	0 	0 	0 	0 	0 	0 	0 	0 	0 	0 	
dq_lat_table:0 	0 	0 	0 	0 	0 	0 	0 	0 	0 	0 	0 	0 	0 	0 	0 	0 	0 	0 	0 	0 	0 	0 	0 	0 	0 	0 	0 	0 	0 	0 	0 	
mf_lat_table:0 	0 	0 	0 	0 	0 	13908 	407620 	299885 	104460 	543 	0 	0 	0 	0 	0 	0 	0 	0 	0 	0 	0 	0 	0 	0 	0 	0 	0 	0 	0 	0 	0 	
icnt2mem_lat_table:314 	306374 	23533 	76454 	127690 	103568 	72233 	63124 	51123 	3009 	101 	12 	0 	0 	0 	0 	0 	0 	0 	0 	0 	0 	0 	0 	
icnt2sh_lat_table:97 	190379 	210642 	263759 	7096 	3 	0 	0 	0 	0 	0 	0 	0 	0 	18013 	34188 	62124 	40115 	0 	0 	0 	0 	0 	0 	
mf_lat_pw_table:0 	0 	0 	0 	0 	0 	6 	671 	468 	177 	0 	0 	0 	0 	0 	0 	0 	0 	0 	0 	0 	0 	0 	0 	0 	0 	0 	0 	0 	0 	0 	0 	
maximum concurrent accesses to same row:
dram[0]:        32        32        46        32        55        32        32        32        32        34        32        32        34        32        32        39 
dram[1]:        32        32        41        32        54        32        32        32        32        32        34        32        35        32        32        42 
dram[2]:        32        32        46        32        71        32        32        35        32        37        34        32        32        32        32        41 
dram[3]:        43        32        67        32        70        32        32        32        32        32        32        40        45        32        32        46 
dram[4]:        54        32        54        38        71        32        32        32        32        32        33        38        46        32        32        40 
maximum service time to same row:
dram[0]:     25326     25604     25844     21529     20190     20242     18048     21462     20212     20372     21392     20234     20292     21666     21688     25434 
dram[1]:     25184     25276     23970     21956     20278     21828     18014     21628     20224     20220     21836     20198     21708     22392     22164     26122 
dram[2]:     23630     25726     25358     22412     20272     21504     18042     21510     20160     20256     22372     20618     21360     20338     22010     23846 
dram[3]:     25984     26358     25158     20512     20366     21920     18002     21636     20250     20310     20436     20540     21686     21566     21826     25402 
dram[4]:     24088     24220     25426     21822     20340     22420     18024     21574     20092     20201     21740     20564     22376     21372     22086     25198 
average row accesses per activate:
dram[0]:  4.106829  4.031332  4.212019  4.082129  4.269013  4.155044  4.132515  4.230083  4.184210  4.066995  4.026862  4.134366  4.033048  3.992638  4.172142  4.107784 
dram[1]:  3.970646  4.000647  4.149502  4.165886  4.344607  4.116523  4.197515  4.237821  4.181704  4.053790  3.943216  4.257508  4.069393  3.972561  4.092903  4.224727 
dram[2]:  4.031746  4.018807  4.113307  4.191661  4.398448  4.113091  4.362338  4.166353  4.325733  4.187342  4.112632  4.200252  3.995134  4.113924  4.029243  4.270776 
dram[3]:  4.120946  4.074391  4.119157  4.266074  4.394567  4.281130  4.324968  4.264516  4.286911  4.222861  4.059692  4.227560  3.972104  4.016089  4.037508  4.123415 
dram[4]:  3.892880  4.025391  4.169446  4.276217  4.335673  4.224826  4.288988  4.174242  4.096237  4.193304  4.085555  4.072384  3.938434  3.953799  4.007590  4.098741 
average row locality = 518656/125338 = 4.138059
number of total memory accesses made:
dram[0]:         0         0         0         0         0         0         0         0         0         0         0         0         0         0         0         0 
dram[1]:         0         0         0         0         0         0         0         0         0         0         0         0         0         0         0         0 
dram[2]:         0         0         0         0         0         0         0         0         0         0         0         0         0         0         0         0 
dram[3]:         0         0         0         0         0         0         0         0         0         0         0         0         0         0         0         0 
dram[4]:         0         0         0         0         0         0         0         0         0         0         0         0         0         0         0         0 
total accesses: 0
min_bank_accesses = 0!
min_chip_accesses = 0!
number of total read accesses:
dram[0]:      4479      4553      4542      4533      4894      4847      4869      4830      4873      4823      4838      4869      4833      4769      4636      4537 
dram[1]:      4490      4568      4553      4546      4899      4848      4872      4825      4871      4827      4837      4853      4822      4771      4640      4533 
dram[2]:      4499      4574      4555      4535      4901      4855      4847      4835      4846      4821      4835      4859      4814      4775      4647      4532 
dram[3]:      4500      4559      4565      4528      4889      4840      4849      4820      4844      4820      4837      4879      4817      4773      4660      4543 
dram[4]:      4484      4548      4554      4531      4886      4842      4860      4828      4855      4833      4840      4881      4837      4771      4641      4545 
total reads: 378669
bank skew: 4901/4479 = 1.09
chip skew: 75755/75723 = 1.00
number of total write accesses:
dram[0]:      1595      1623      1696      1680      1898      1826      1867      1807      1805      1794      1758      1808      1757      1739      1714      1637 
[...]
maxmrqlatency = 658 
maxdqlatency = 0 
maxmflatency = 1481 
averagemflatency = 322 
max_icnt2mem_latency = 2759 
max_icnt2sh_latency = 1449785 
mrq_lat_table:567674 	37832 	43478 	79662 	141732 	181082 	139760 	40703 	1721 	8 	0 	0 	0 	0 	0 	0 	0 	0 	0 	0 	0 	0 	0 	0 	0 	0 	0 	0 	0 	0 	0 	0 	
dq_lat_table:0 	0 	0 	0 	0 	0 	0 	0 	0 	0 	0 	0 	0 	0 	0 	0 	0 	0 	0 	0 	0 	0 	0 	0 	0 	0 	0 	0 	0 	0 	0 	0 	
mf_lat_table:0 	0 	0 	0 	0 	0 	24822 	821148 	698038 	273127 	1868 	0 	0 	0 	0 	0 	0 	0 	0 	0 	0 	0 	0 	0 	0 	0 	0 	0 	0 	0 	0 	0 	
icnt2mem_lat_table:640 	631923 	52205 	163060 	266340 	236225 	173356 	157760 	131875 	7962 	177 	23 	0 	0 	0 	0 	0 	0 	0 	0 	0 	0 	0 	0 	
icnt2sh_lat_table:204 	413880 	401520 	546841 	16543 	63 	0 	0 	0 	0 	0 	0 	0 	0 	18013 	34188 	62124 	40115 	0 	219976 	65536 	0 	0 	0 	
mf_lat_pw_table:0 	0 	0 	0 	0 	0 	10 	1355 	1083 	432 	0 	0 	0 	0 	0 	0 	0 	0 	0 	0 	0 	0 	0 	0 	0 	0 	0 	0 	0 	0 	0 	0 	
maximum concurrent accesses to same row:
dram[0]:        75        36        46        80        55        55        60        75        75        55        45        80        50        45        40        50 
dram[1]:        65        32        41        80        75        60        60        78        80        44        45        80        41        45        40        45 
dram[2]:        80        42        46        80        71        55        60        75        80        53        45        45        50        45        36        54 
dram[3]:        55        43        67        80        70        65        55        80        80        48        45        80        50        35        35        65 
dram[4]:        75        35        54        80        71        55        65        80        80        40        45        50        55        50        50        50 
maximum service time to same row:
dram[0]:     25326     25604     25844     21529     20960     21100     18794     21462     20860     20990     21392     21052     21022     21666     21688     25434 
dram[1]:     25184     25276     24710     21956     20962     21828     18738     21628     21036     20970     21836     20963     21708     22392     22164     26122 
dram[2]:     24463     25726     25358     22412     20960     21504     18782     21510     20890     20982     22372     20952     21360     21050     22010     24754 
dram[3]:     25984     26358     25158     21218     21006     21920     18734     21636     20914     21128     21130     20938     21686     21566     21826     25402 
dram[4]:     24782     24958     25426     21822     20978     22420     18768     21574     20780     20972     21740     20942     22376     21372     22086     25198 
average row accesses per activate:
dram[0]:  4.280977  4.299971  4.427479  4.307538  4.385797  4.275513  4.309576  4.490853  4.454066  4.277036  4.234725  4.317321  4.235631  4.129839  4.208054  4.271966 
dram[1]:  4.211610  4.239955  4.342098  4.285144  4.447873  4.273297  4.407665  4.466910  4.462030  4.317295  4.210974  4.394840  4.194482  4.129640  4.212748  4.349780 
dram[2]:  4.270568  4.364586  4.397834  4.405271  4.500704  4.294714  4.449422  4.527573  4.569671  4.369947  4.286755  4.455524  4.197401  4.206566  4.187587  4.404521 
dram[3]:  4.351551  4.343245  4.358261  4.401287  4.480213  4.334627  4.476258  4.639593  4.552519  4.414483  4.328350  4.431831  4.197023  4.196779  4.206868  4.297039 
dram[4]:  4.247910  4.300601  4.301979  4.453203  4.401658  4.370360  4.396892  4.614628  4.423907  4.352452  4.310006  4.330585  4.135928  4.124095  4.207321  4.294835 
average row locality = 1233652/284493 = 4.336318
number of total memory accesses made:
dram[0]:         0         0         0         0         0         0         0         0         0         0         0         0         0         0         0         0 
dram[1]:         0         0         0         0         0         0         0         0         0         0         0         0         0         0         0         0 
dram[2]:         0         0         0         0         0         0         0         0         0         0         0         0         0         0         0         0 
dram[3]:         0         0         0         0         0         0         0         0         0         0         0         0         0         0         0         0 
dram[4]:         0         0         0         0         0         0         0         0         0         0         0         0         0         0         0         0 
total accesses: 0
min_bank_accesses = 0!
min_chip_accesses = 0!
number of total read accesses:
dram[0]:      9951     10111     10105     10113     10784     10642     10648     10675     10751     10585     10487     10673     10592     10485     10215     10035 
dram[1]:      9969     10145     10121     10142     10784     10666     10652     10667     10740     10570     10474     10634     10576     10477     10225     10038 
dram[2]:      9988     10165     10121     10131     10768     10655     10620     10663     10705     10567     10466     10660     10551     10506     10226     10053 
dram[3]:      9990     10154     10128     10122     10742     10630     10616     10656     10702     10570     10489     10673     10578     10504     10254     10064 
dram[4]:      9972     10122     10110     10132     10746     10635     10634     10682     10708     10598     10506     10682     10590     10507     10231     10045 
total reads: 834349
bank skew: 10784/9951 = 1.08
chip skew: 166900/166845 = 1.00
number of total write accesses:
dram[0]:      4767      4883      4944      4916      5211      4985      5194      5281      5297      5116      4830      5055      4957      4878      4833      4746 
dram[1]:      4759      4839      4907      4886      5215      5017      5220      5262      5301      5132      4875      5038      4931      4877      4844      4773 
dram[2]:      4754      4871      4902      4913      5214      5025      5171      5265      5266      5108      4842      5068      4950      4869      4820      4755 
dram[3]:      4740      4891      4908      4926      5221      5005      5221      5281      5291      5097      4855      5060      4930      4873      4815      4735 
dram[4]:      4764      4900      4891      4951      5188      5024      5208      5280      5280      5110      4829      5077      4928      4880      4827      4755 
total reads: 399303
bank skew: 5301/4735 = 1.12
chip skew: 79893/79793 = 1.00
average mf latency per bank:
dram[0]:        459       462       462       500       494       501       497       490       484       473       457       462       467       462       460       464
dram[1]:        464       462       460       500       493       500       496       488       486       471       456       457       464       464       462       468
dram[2]:        462       460       459       500       492       499       499       488       487       469       456       457       468       459       460       466
dram[3]:        462       463       462       508       495       501       498       492       485       472       455       461       465       464       462       467
dram[4]:        463       462       462       505       493       499       496       489       484       470       461       462       465       461       463       465
maximum mf latency per bank:
dram[0]:       1226      1481      1203      1181      1312      1138      1282      1204      1273      1146      1082      1304      1209      1089      1258      1229
dram[1]:       1284      1158      1300      1136      1181      1274      1228      1429      1141      1158      1110      1197      1377      1156      1162      1383
dram[2]:       1131      1329      1306      1222      1280      1248      1386      1351      1242      1223      1144      1202      1383      1172      1148      1182
dram[3]:       1142      1262      1104      1268      1108      1128      1171      1200      1284      1069      1067      1239      1211      1185      1104      1156
dram[4]:       1163      1216      1319      1220      1182      1189      1181      1135      1121      1252      1285      1174      1274      1190      1292      1251

Number of Memory Banks Accessed per Memory Operation per Warp (from 0):
0	0	0	0	0	0	0	0	0	0	0	0	0	0	0	0	0	0	0	0	0	0	0	0	0	0	0	0	0	0	0	0	0	0	0	0	0	0	0	0	0	0	0	0	0	0	0	0	0	0	0	0	0	0	0	0	0	0	0	0	0	0	0	0	0	0	0	0	0	0	0	0	0	0	0	0	0	0	0	0	
Average # of Memory Banks Accessed per Memory Operation per Warp=-nan

position of mrq chosen
0	0	0	0	0	0	0	0	0	0	0	0	0	0	0	0	

average position of mrq chosen = -nan
gpgpu_l2_write_miss = 0
gpgpu_l2_write_access = 0
gpgpu_l2_read_miss = 0
gpgpu_l2_read_access = 0
Cache L2_bank_000:
MSHR contents

DRAM[0]: 16 bks, busW=4 BL=8 CL=12, tRRD=2 tCCD=6, tRCD=12 tRAS=28 tRP=12 tRC=40
n_cmd=2174672 n_nop=1635892 n_act=57306 n_pre=57290 n_req=246745 n_rd=333704 n_write=90480 bw_util=0.3901
n_activity=1636977 dram_eff=0.5183
bk0: 19902a 1915775i bk1: 20222a 1915297i bk2: 20210a 1912401i bk3: 20226a 1910099i bk4: 21568a 1913329i bk5: 21284a 1902903i bk6: 21296a 1897323i bk7: 21350a 1892012i bk8: 21502a 1890318i bk9: 21170a 1886407i bk10: 20974a 1888014i bk11: 21346a 1866996i bk12: 21184a 1844145i bk13: 20970a 1798420i bk14: 20430a 1693690i bk15: 20070a 1443456i 
dram_util_bins: 0 0 0 0 0 0 0 0 0 0
dram_eff_bins: 0 0 0 0 0 0 0 0 0 0
mrqq: max=16 avg=4.40979
Cache L2_bank_001:
MSHR contents

DRAM[1]: 16 bks, busW=4 BL=8 CL=12, tRRD=2 tCCD=6, tRCD=12 tRAS=28 tRP=12 tRC=40
n_cmd=2174672 n_nop=1635985 n_act=57274 n_pre=57258 n_req=246756 n_rd=333760 n_write=90395 bw_util=0.3901
n_activity=1631121 dram_eff=0.5201
bk0: 19938a 1916293i bk1: 20290a 1918139i bk2: 20242a 1911928i bk3: 20284a 1911477i bk4: 21568a 1912728i bk5: 21332a 1902527i bk6: 21304a 1896413i bk7: 21334a 1891247i bk8: 21480a 1890011i bk9: 21140a 1886768i bk10: 20948a 1887610i bk11: 21268a 1866932i bk12: 21152a 1844223i bk13: 20954a 1797775i bk14: 20450a 1695959i bk15: 20076a 1445979i 
dram_util_bins: 0 0 0 0 0 0 0 0 0 0
dram_eff_bins: 0 0 0 0 0 0 0 0 0 0
mrqq: max=16 avg=4.39428
Cache L2_bank_002:
MSHR contents

DRAM[2]: 16 bks, busW=4 BL=8 CL=12, tRRD=2 tCCD=6, tRCD=12 tRAS=28 tRP=12 tRC=40
n_cmd=2174672 n_nop=1637653 n_act=56484 n_pre=56468 n_req=246638 n_rd=333690 n_write=90377 bw_util=0.39
n_activity=1632768 dram_eff=0.5194
bk0: 19976a 1916676i bk1: 20330a 1916147i bk2: 20242a 1913238i bk3: 20262a 1908540i bk4: 21536a 1912138i bk5: 21310a 1902340i bk6: 21240a 1896620i bk7: 21326a 1890911i bk8: 21410a 1892503i bk9: 21134a 1885780i bk10: 20932a 1885258i bk11: 21320a 1865997i bk12: 21102a 1845619i bk13: 21012a 1800603i bk14: 20452a 1698183i bk15: 20106a 1454096i 
dram_util_bins: 0 0 0 0 0 0 0 0 0 0
dram_eff_bins: 0 0 0 0 0 0 0 0 0 0
mrqq: max=16 avg=4.39819
Cache L2_bank_003:
MSHR contents

DRAM[3]: 16 bks, busW=4 BL=8 CL=12, tRRD=2 tCCD=6, tRCD=12 tRAS=28 tRP=12 tRC=40
n_cmd=2174672 n_nop=1637726 n_act=56403 n_pre=56387 n_req=246721 n_rd=333744 n_write=90412 bw_util=0.3901
n_activity=1630617 dram_eff=0.5202
bk0: 19980a 1919115i bk1: 20308a 1914967i bk2: 20256a 1911535i bk3: 20244a 1910149i bk4: 21484a 1913028i bk5: 21260a 1901278i bk6: 21232a 1893328i bk7: 21312a 1891857i bk8: 21404a 1891875i bk9: 21140a 1887223i bk10: 20978a 1886583i bk11: 21346a 1867585i bk12: 21156a 1844159i bk13: 21008a 1802244i bk14: 20508a 1701835i bk15: 20128a 1455846i 
dram_util_bins: 0 0 0 0 0 0 0 0 0 0
dram_eff_bins: 0 0 0 0 0 0 0 0 0 0
mrqq: max=16 avg=4.40697
Cache L2_bank_004:
MSHR contents

DRAM[4]: 16 bks, busW=4 BL=8 CL=12, tRRD=2 tCCD=6, tRCD=12 tRAS=28 tRP=12 tRC=40
n_cmd=2174672 n_nop=1636343 n_act=57029 n_pre=57013 n_req=246792 n_rd=333800 n_write=90487 bw_util=0.3902
n_activity=1635802 dram_eff=0.5188
bk0: 19944a 1916064i bk1: 20244a 1915837i bk2: 20220a 1912252i bk3: 20264a 1910926i bk4: 21492a 1912960i bk5: 21270a 1899419i bk6: 21268a 1895869i bk7: 21364a 1889711i bk8: 21416a 1891437i bk9: 21196a 1888314i bk10: 21012a 1887805i bk11: 21364a 1868771i bk12: 21180a 1845783i bk13: 21014a 1800935i bk14: 20462a 1698639i bk15: 20090a 1448690i 
dram_util_bins: 0 0 0 0 0 0 0 0 0 0
dram_eff_bins: 0 0 0 0 0 0 0 0 0 0
mrqq: max=16 avg=4.39287
Cache L2_bank_000:	Size = 131072 B (64 Set x 16-way x 128 byte line)
		Access = 364217, Miss = 166852 (0.458), PendingHit = 72483 (0.199)
Cache L2_bank_001:	Size = 131072 B (64 Set x 16-way x 128 byte line)
		Access = 364268, Miss = 166880 (0.458), PendingHit = 72474 (0.199)
Cache L2_bank_002:	Size = 131072 B (64 Set x 16-way x 128 byte line)
		Access = 364092, Miss = 166845 (0.458), PendingHit = 72439 (0.199)
Cache L2_bank_003:	Size = 131072 B (64 Set x 16-way x 128 byte line)
		Access = 364559, Miss = 166872 (0.458), PendingHit = 72433 (0.199)
Cache L2_bank_004:	Size = 131072 B (64 Set x 16-way x 128 byte line)
		Access = 364410, Miss = 166900 (0.458), PendingHit = 72449 (0.199)
L2 Cache Total Miss Rate = 0.458

icnt_total_pkts_mem_to_simt=7347126
icnt_total_pkts_simt_to_mem=2341370

LD_mem_lat_dist  0 0 0 0 0 0 0 0 0 0 0 0 0 0 0 0 0 0 0 0 0 0 0 0 0 0 0
ST_mem_lat_dist  0 0 0 0 0 0 0 0 0 0 0 0 0 0 0 0 0 0 0 0 0 0 0 0 0 0 0
Traffic 0 Stat
%=================================
% Average latency = 138.737
% Accepted packets = 0 at node 0 (avg = 0.0676578)
lat(15) = 138.737;
thru(15,:) = [ 0 0 0 0 0 0 0 0 0 0 0 0 0 0 0.311121 0.311153 0.311153 0.311285 0.311417 0 0 0 0 ];
% latency change    = 0.909277
% throughput change = 1.04611
Traffic 1 Stat
%=================================
% Average latency = 3.02143
% Accepted packets = 0 at node 14 (avg = 0.0561329)
lat(16) = 3.02143;
thru(16,:) = [ 0.0910182 0.120577 0.0908538 0.0932211 0.0658655 0.0908538 0.122944 0.0932211 0.0908538 0.0634982 0.0908538 0.0908538 0.122944 0.0634982 0 0 0 0 0 0 0 0 0 ];
% latency change    = 44.9177
% throughput change = 0.205315
----------------------------Interconnect-DETAILS---------------------------------=======Traffic[0]class0 ======
Traffic[0]class0Overall average latency = 101.029 (8 samples)
Traffic[0]class0Overall average accepted rate = 0.0479606 (8 samples)
Traffic[0]class0Overall min accepted rate = 0 (8 samples)
traffic_manager/latency_stat_0_freq = [ 0 895 1388 433 492 418 462 188 284 243 269 172 212 164 314 346 1506 1749 801 913 822 839 829 877 765 855 834 777 769 813 815 786 801 683 698 755 700 692 704 722 706 639 655 652 684 628 664 574 618 617 605 574 584 564 580 568 572 523 511 494 471 502 520 491 498 473 493 425 438 431 476 437 488 431 414 419 400 354 398 375 344 329 344 335 325 324 352 315 307 250 276 272 289 303 311 258 277 245 245 192 261 226 211 215 233 202 195 183 188 180 191 169 189 156 192 168 169 151 146 133 146 136 108 133 128 133 114 130 123 115 118 121 103 108 118 112 93 118 130 81 99 106 114 97 96 103 99 100 92 79 97 94 93 86 82 88 101 85 79 91 98 83 99 99 82 87 91 87 96 86 90 83 82 73 86 75 91 93 86 71 81 93 105 66 69 76 72 83 75 81 92 84 60 72 83 65 75 82 87 78 75 94 71 75 79 69 64 65 92 73 78 85 71 68 62 61 58 67 70 74 97 63 52 67 60 85 65 72 62 68 56 60 65 58 71 71 59 65 65 56 64 64 56 56 61 64 40 55 53 56 66 54 52 71 49 56 67 72 56 73 49 50 52 52 57 57 68 66 51 52 49 65 42 44 52 51 65 38 55 48 51 57 59 45 58 51 43 44 45 60 48 46 59 45 69 41 51 56 48 55 54 43 59 35 39 40 48 47 38 40 50 52 53 44 36 59 43 51 46 71 49 54 48 46 47 43 51 38 40 43 49 41 34 42 50 47 38 37 48 39 42 46 49 47 53 45 39 44 56 56 59 46 48 35 43 45 32 50 39 36 51 37 42 31 57 57 62 44 46 51 39 39 40 50 36 37 25 37 32 55 34 45 41 52 35 51 33 37 41 46 51 38 34 39 32 26 34 36 30 43 39 34 35 45 32 45 33 35 40 47 24 37 34 24 35 29 34 32 41 37 33 35 38 42 34 27 35 46 54 41 31 55 35 36 45 42 40 29 41 38 30 31 34 38 43 28 37 29 33 40 36 44 31 33 37 36 40 36 34 28 37 44 40 53 31 35 44 33 37 36 42 50 29 49 50 34 44 30 38 37 47 31 28 39 24 37 34 32 25 34 39 27 24 35 26 21 19 37 26 33 36 32 25 28 27 19 26 29 39 30 40 30 29 23 37 35 22 29 28 23 18 28 22 21 20 30 31 29 23 22 36 29 26 31 37 20 17 26 23 27 25 19 17 22 19 23 21 28 18 18 23 19 16 18 24 19 23 30 31 21 20 30 16 21 20 22 13 12 23 26 13 8 18 21 26 18 22 15 21 14 26 16 21 18 10 13 20 35 23 24 19 16 18 18 25 20 21 15 17 15 19 20 20 20 20 19 25 15 17 17 21 18 15 20 20 11 20 21 8 14 19 15 9 9 13 19 13 12 14 15 15 10 12 14 7 15 9 9 12 19 9 13 11 19 10 16 19 18 13 12 7 19 10 13 7 12 14 18 9 17 11 18 11 8 12 15 11 13 9 8 11 17 12 7 7 13 16 19 8 12 15 7 8 9 7 12 11 12 11 14 13 8 13 10 14 14 14 6 6 5 9 6 14 6 10 17 10 6 9 11 5 9 5 7 10 10 11 11 5 10 7 10 7 7 8 7 11 9 5 6 8 9 6 4 6 7 8 9 4 6 15 6 11 6 6 8 8 3 2 3 3 2 5 4 4 11 5 6 5 2 7 6 7 4 4 9 8 6 4 4 5 4 8 5 8 9 5 4 6 4 10 6 4 3 3 3 5 9 7 7 12 4 3 3 4 8 1 3 3 2 2 6 2 3 3 3 1 5 4 4 3 7 0 3 6 5 8 1 4 3 4 5 5 2 5 2 2 3 0 4 1 2 1 4 1 4 5 2 2 2 1 4 6 6 5 3 3 2 5 6 5 2 1 7 2 8 4 2 4 6 2 6 1 4 4 3 2 7 3 5 4 4 3 9 5 4 4 4 1 4 2 3 4 5 5 1 2 2 0 4 4 6 5 2 2 4 2 5 1 1 4 2 4 2 6 3 4 1 2 6 3 4 0 4 0 2 0 0 3 0 2 3 3 4 1 2 3 2 0 2 3 2 0 1 0 0 1 2 2 3 1 0 1 2 0 4 1 0 0 1 1 3 1 1 3 1 0 0 1 0 0 1 0 2 2 0 0 0 0 2 1 2 0 2 0 0 0 1 0 0 1 2 0 1 0 0 0 0 1 1 0 0 1 0 0 1 1 0 3 83 ];
Traffic[0]class1Average hops = 1 (1821546 samples)
traffic_manager/hop_stats_freq = [ 0 1821546 0 0 0 0 0 0 0 0 0 0 0 0 0 0 0 0 0 0 ];
=======Traffic[1]class0 ======
Traffic[1]class0Overall average latency = 7.83775 (8 samples)
Traffic[1]class0Overall average accepted rate = 0.0766422 (8 samples)
Traffic[1]class0Overall min accepted rate = 0 (8 samples)
traffic_manager/latency_stat_0_freq = [ 0 48046 4839 2108 2772 14748 2962 1509 2158 1308 823 477 423 299 259 173 276 129 92 91 73 60 41 40 38 21 10 15 8 6 3 5 1 3 2 4 3 2 0 6 2 3 1 1 1 0 0 1 0 0 0 0 0 0 0 0 0 0 0 0 0 0 0 0 0 0 0 0 0 0 0 0 0 0 0 0 0 0 0 0 0 0 0 0 0 0 0 0 0 0 0 0 0 0 0 0 0 0 0 0 0 0 0 0 0 0 0 0 0 0 0 0 0 0 0 0 0 0 0 0 0 0 0 0 0 0 0 0 0 0 0 0 0 0 0 0 0 0 0 0 0 0 0 0 0 0 0 0 0 0 0 0 0 0 0 0 0 0 0 0 0 0 0 0 0 0 0 0 0 0 0 0 0 0 0 0 0 0 0 0 0 0 0 0 0 0 0 0 0 0 0 0 0 0 0 0 0 0 0 0 0 0 0 0 0 0 0 0 0 0 0 0 0 0 0 0 0 0 0 0 0 0 0 0 0 0 0 0 0 0 0 0 0 0 0 0 0 0 0 0 0 0 0 0 0 0 0 0 0 0 0 0 0 0 0 0 0 0 0 0 0 0 0 0 0 0 0 0 0 0 0 0 0 0 0 0 0 0 0 0 0 0 0 0 0 0 0 0 0 0 0 0 0 0 0 0 0 0 0 0 0 0 0 0 0 0 0 0 0 0 0 0 0 0 0 0 0 0 0 0 0 0 0 0 0 0 0 0 0 0 0 0 0 0 0 0 0 0 0 0 0 0 0 0 0 0 0 0 0 0 0 0 0 0 0 0 0 0 0 0 0 0 0 0 0 0 0 0 0 0 0 0 0 0 0 0 0 0 0 0 0 0 0 0 0 0 0 0 0 0 0 0 0 0 0 0 0 0 0 0 0 0 0 0 0 0 0 0 0 0 0 0 0 0 0 0 0 0 0 0 0 0 0 0 0 0 0 0 0 0 0 0 0 0 0 0 0 0 0 0 0 0 0 0 0 0 0 0 0 0 0 0 0 0 0 0 0 0 0 0 0 0 0 0 0 0 0 0 0 0 0 0 0 0 0 0 0 0 0 0 0 0 0 0 0 0 0 0 0 0 0 0 0 0 0 0 0 0 0 0 0 0 0 0 0 0 0 0 0 0 0 0 0 0 0 0 0 0 0 0 0 0 0 0 0 0 0 0 0 0 0 0 0 0 0 0 0 0 0 0 0 0 0 0 0 0 0 0 0 0 0 0 0 0 0 0 0 0 0 0 0 0 0 0 0 0 0 0 0 0 0 0 0 0 0 0 0 0 0 0 0 0 0 0 0 0 0 0 0 0 0 0 0 0 0 0 0 0 0 0 0 0 0 0 0 0 0 0 0 0 0 0 0 0 0 0 0 0 0 0 0 0 0 0 0 0 0 0 0 0 0 0 0 0 0 0 0 0 0 0 0 0 0 0 0 0 0 0 0 0 0 0 0 0 0 0 0 0 0 0 0 0 0 0 0 0 0 0 0 0 0 0 0 0 0 0 0 0 0 0 0 0 0 0 0 0 0 0 0 0 0 0 0 0 0 0 0 0 0 0 0 0 0 0 0 0 0 0 0 0 0 0 0 0 0 0 0 0 0 0 0 0 0 0 0 0 0 0 0 0 0 0 0 0 0 0 0 0 0 0 0 0 0 0 0 0 0 0 0 0 0 0 0 0 0 0 0 0 0 0 0 0 0 0 0 0 0 0 0 0 0 0 0 0 0 0 0 0 0 0 0 0 0 0 0 0 0 0 0 0 0 0 0 0 0 0 0 0 0 0 0 0 0 0 0 0 0 0 0 0 0 0 0 0 0 0 0 0 0 0 0 0 0 0 0 0 0 0 0 0 0 0 0 0 0 0 0 0 0 0 0 0 0 0 0 0 0 0 0 0 0 0 0 0 0 0 0 0 0 0 0 0 0 0 0 0 0 0 0 0 0 0 0 0 0 0 0 0 0 0 0 0 0 0 0 0 0 0 0 0 0 0 0 0 0 0 0 0 0 0 0 0 0 0 0 0 0 0 0 0 0 0 0 0 0 0 0 0 0 0 0 0 0 0 0 0 0 0 0 0 0 0 0 0 0 0 0 0 0 0 0 0 0 0 0 0 0 0 0 0 0 0 0 0 0 0 0 0 0 0 0 0 0 0 0 0 0 0 0 0 0 0 0 0 0 0 0 0 0 0 0 0 0 0 0 0 0 0 0 0 0 0 0 0 0 0 0 0 0 0 ];
Traffic[1]class1Average hops = 1 (1821546 samples)
traffic_manager/hop_stats_freq = [ 0 1821546 0 0 0 0 0 0 0 0 0 0 0 0 0 0 0 0 0 0 ];
----------------------------END-of-Interconnect-DETAILS-------------------------

gpgpu_simulation_time = 0 days, 0 hrs, 19 min, 43 sec (1183 sec)
gpgpu_simulation_rate = 313366 (inst/sec)
gpgpu_simulation_rate = 1225 (cycle/sec)

