

        *** GPGPU-Sim Simulator Version 3.2.1  [build 15629] ***


               1=functional simulation only, 0=detailed performance simulator)
GPGPU-Sim: Configuration options:

-network_mode                           1 # Interconnection network mode
-inter_config_file   config_fermi_islip.icnt # Interconnection network config file
-gpgpu_ptx_use_cuobjdump                    1 # Use cuobjdump to extract ptx and sass from binaries
-gpgpu_experimental_lib_support                    0 # Try to extract code from cuda libraries [Broken because of unknown cudaGetExportTable]
-gpgpu_ptx_convert_to_ptxplus                    0 # Convert SASS (native ISA) to ptxplus and run ptxplus
-gpgpu_ptx_force_max_capability                   20 # Force maximum compute capability
-gpgpu_ptx_inst_debug_to_file                    0 # Dump executed instructions' debug information to file
-gpgpu_ptx_inst_debug_file       inst_debug.txt # Executed instructions' debug output file
-gpgpu_ptx_inst_debug_thread_uid                    1 # Thread UID for executed instructions' debug output
-gpgpu_simd_model                       1 # 1 = post-dominator
-gpgpu_shader_core_pipeline              1536:32 # shader core pipeline config, i.e., {<nthread>:<warpsize>}
-gpgpu_tex_cache:l1  4:128:24,L:R:m:N,F:128:4,128:2 # per-shader L1 texture cache  (READ-ONLY) config  {<nsets>:<bsize>:<assoc>,<rep>:<wr>:<alloc>:<wr_alloc>,<mshr>:<N>:<merge>,<mq>:<rf>}
-gpgpu_const_cache:l1 64:64:2,L:R:f:N,A:2:32,4 # per-shader L1 constant memory cache  (READ-ONLY) config  {<nsets>:<bsize>:<assoc>,<rep>:<wr>:<alloc>:<wr_alloc>,<mshr>:<N>:<merge>,<mq>} 
-gpgpu_cache:il1     4:128:4,L:R:f:N,A:2:32,4 # shader L1 instruction cache config  {<nsets>:<bsize>:<assoc>,<rep>:<wr>:<alloc>:<wr_alloc>,<mshr>:<N>:<merge>,<mq>} 
-gpgpu_cache:dl1     32:128:4,L:L:m:N,A:32:8,8 # per-shader L1 data cache config  {<nsets>:<bsize>:<assoc>,<rep>:<wr>:<alloc>:<wr_alloc>,<mshr>:<N>:<merge>,<mq> | none}
-gpgpu_perfect_mem                      0 # enable perfect memory mode (no cache miss)
-n_regfile_gating_group                    4 # group of lanes that should be read/written together)
-gpgpu_clock_gated_reg_file                    0 # enable clock gated reg file for power calculations
-gpgpu_clock_gated_lanes                    0 # enable clock gated lanes for power calculations
-gpgpu_shader_registers                32768 # Number of registers per shader core. Limits number of concurrent CTAs. (default 8192)
-gpgpu_shader_cta                       8 # Maximum number of concurrent CTAs in shader (default 8)
-gpgpu_n_clusters                      14 # number of processing clusters
-gpgpu_n_cores_per_cluster                    1 # number of simd cores per cluster
-gpgpu_n_cluster_ejection_buffer_size                    8 # number of packets in ejection buffer
-gpgpu_n_ldst_response_buffer_size                    2 # number of response packets in ld/st unit ejection buffer
-gpgpu_shmem_size                   16384 # Size of shared memory per shader core (default 16kB)
-gpgpu_shmem_num_banks                   32 # Number of banks in the shared memory in each shader core (default 16)
-gpgpu_shmem_limited_broadcast                    0 # Limit shared memory to do one broadcast per cycle (default on)
-gpgpu_shmem_warp_parts                    1 # Number of portions a warp is divided into for shared memory bank conflict check 
-gpgpu_warpdistro_shader                   -1 # Specify which shader core to collect the warp size distribution from
-gpgpu_warp_issue_shader                    0 # Specify which shader core to collect the warp issue distribution from
-gpgpu_local_mem_map                    1 # Mapping from local memory space address to simulated GPU physical address space (default = enabled)
-gpgpu_num_reg_banks                   16 # Number of register banks (default = 8)
-gpgpu_reg_bank_use_warp_id                    0 # Use warp ID in mapping registers to banks (default = off)
-gpgpu_operand_collector_num_units_sp                    6 # number of collector units (default = 4)
-gpgpu_operand_collector_num_units_sfu                    8 # number of collector units (default = 4)
-gpgpu_operand_collector_num_units_mem                    2 # number of collector units (default = 2)
-gpgpu_operand_collector_num_units_gen                    0 # number of collector units (default = 0)
-gpgpu_operand_collector_num_in_ports_sp                    2 # number of collector unit in ports (default = 1)
-gpgpu_operand_collector_num_in_ports_sfu                    1 # number of collector unit in ports (default = 1)
-gpgpu_operand_collector_num_in_ports_mem                    1 # number of collector unit in ports (default = 1)
-gpgpu_operand_collector_num_in_ports_gen                    0 # number of collector unit in ports (default = 0)
-gpgpu_operand_collector_num_out_ports_sp                    2 # number of collector unit in ports (default = 1)
-gpgpu_operand_collector_num_out_ports_sfu                    1 # number of collector unit in ports (default = 1)
-gpgpu_operand_collector_num_out_ports_mem                    1 # number of collector unit in ports (default = 1)
-gpgpu_operand_collector_num_out_ports_gen                    0 # number of collector unit in ports (default = 0)
-gpgpu_coalesce_arch                   13 # Coalescing arch (default = 13, anything else is off for now)
-gpgpu_num_sched_per_core                    2 # Number of warp schedulers per core
-gpgpu_max_insn_issue_per_warp                    1 # Max number of instructions that can be issued per warp in one cycle by scheduler
-gpgpu_simt_core_sim_order                    1 # Select the simulation order of cores in a cluster (0=Fix, 1=Round-Robin)
-gpgpu_pipeline_widths        2,1,1,2,1,1,2 # Pipeline widths ID_OC_SP,ID_OC_SFU,ID_OC_MEM,OC_EX_SP,OC_EX_SFU,OC_EX_MEM,EX_WB
-gpgpu_num_sp_units                     2 # Number of SP units (default=1)
-gpgpu_num_sfu_units                    1 # Number of SF units (default=1)
-gpgpu_num_mem_units                    1 # Number if ldst units (default=1) WARNING: not hooked up to anything
-gpgpu_scheduler                      lrr # Scheduler configuration: < lrr | gto | two_level_active > If two_level_active:<num_active_warps>:<inner_prioritization>:<outer_prioritization>For complete list of prioritization values see shader.h enum scheduler_prioritization_typeDefault: gto
-gpgpu_dram_scheduler                    1 # 0 = fifo, 1 = FR-FCFS (defaul)
-gpgpu_dram_partition_queues              8:8:8:8 # i2$:$2d:d2$:$2i
-l2_ideal                               0 # Use a ideal L2 cache that always hit
-gpgpu_cache:dl2     64:128:16,L:B:m:W,A:32:4,4 # unified banked L2 data cache config  {<nsets>:<bsize>:<assoc>,<rep>:<wr>:<alloc>:<wr_alloc>,<mshr>:<N>:<merge>,<mq>}
-gpgpu_cache:dl2_texture_only                    0 # L2 cache used for texture only
-gpgpu_n_mem                            5 # number of memory modules (e.g. memory controllers) in gpu
-gpgpu_n_mem_per_ctrlr                    2 # number of memory chips per memory controller
-gpgpu_memlatency_stat                   14 # track and display latency statistics 0x2 enables MC, 0x4 enables queue logs
-gpgpu_frfcfs_dram_sched_queue_size                   16 # 0 = unlimited (default); # entries per chip
-gpgpu_dram_return_queue_size                    0 # 0 = unlimited (default); # entries per chip
-gpgpu_dram_buswidth                    4 # default = 4 bytes (8 bytes per cycle at DDR)
-gpgpu_dram_burst_length                    8 # Burst length of each DRAM request (default = 4 data bus cycle)
-dram_data_command_freq_ratio                    4 # Frequency ratio between DRAM data bus and command bus (default = 2 times, i.e. DDR)
-gpgpu_dram_timing_opt nbk=16:CCD=2:RRD=6:RCD=12:RAS=28:RP=12:RC=40: CL=12:WL=4:CDLR=5:WR=12:nbkgrp=4:CCDL=3:RTPL=2 # DRAM timing parameters = {nbk:tCCD:tRRD:tRCD:tRAS:tRP:tRC:CL:WL:tCDLR:tWR:nbkgrp:tCCDL:tRTPL}
-rop_latency                          120 # ROP queue latency (default 85)
-dram_latency                         100 # DRAM latency (default 30)
-gpgpu_mem_addr_mapping dramid@8;00000000.00000000.00000000.00000000.0000RRRR.RRRRRRRR.BBBBCCCC.CCSSSSSS # mapping memory address to dram model {dramid@<start bit>;<memory address map>}
-gpgpu_mem_addr_test                    0 # run sweep test to check address mapping for aliased address
-gpgpu_mem_address_mask                    1 # 0 = old addressing mask, 1 = new addressing mask, 2 = new add. mask + flipped bank sel and chip sel bits
-gpuwattch_xml_file         gpuwattch.xml # GPUWattch XML file
-power_simulation_enabled                    1 # Turn on power simulator (1=On, 0=Off)
-power_per_cycle_dump                    0 # Dump detailed power output each cycle
-power_trace_enabled                    1 # produce a file for the power trace (1=On, 0=Off)
-power_trace_zlevel                     6 # Compression level of the power trace output log (0=no comp, 9=highest)
-steady_power_levels_enabled                    0 # produce a file for the steady power levels (1=On, 0=Off)
-steady_state_definition                  8:4 # allowed deviation:number of samples
-gpgpu_max_cycle                        0 # terminates gpu simulation early (0 = no limit)
-gpgpu_max_insn                         0 # terminates gpu simulation early (0 = no limit)
-gpgpu_max_cta                          0 # terminates gpu simulation early (0 = no limit)
-gpgpu_runtime_stat                   500 # display runtime statistics such as dram utilization {<freq>:<flag>}
-gpgpu_flush_l1_cache                    0 # Flush L1 cache at the end of each kernel call
-gpgpu_flush_l2_cache                    0 # Flush L2 cache at the end of each kernel call
-gpgpu_deadlock_detect                    1 # Stop the simulation at deadlock (1=on (default), 0=off)
-gpgpu_ptx_instruction_classification                    0 # if enabled will classify ptx instruction types per kernel (Max 255 kernels now)
-gpgpu_ptx_sim_mode                     0 # Select between Performance (default) or Functional simulation (1)
-gpgpu_clock_domains 600.0:1200.0:600.0:900.0 # Clock Domain Frequencies in MhZ {<Core Clock>:<ICNT Clock>:<L2 Clock>:<DRAM Clock>}
-gpgpu_max_concurrent_kernel                    8 # maximum kernels that can run concurrently on GPU
-gpgpu_cflog_interval                    0 # Interval between each snapshot in control flow logger
-visualizer_enabled                     0 # Turn on visualizer output (1=On, 0=Off)
-visualizer_outputfile                 NULL # Specifies the output log file for visualizer
-visualizer_zlevel                      6 # Compression level of the visualizer output log (0=no comp, 9=highest)
-trace_enabled                          0 # Turn on traces
-trace_components                    none # comma seperated list of traces to enable. Complete list found in trace_streams.tup. Default none
-trace_sampling_core                    0 # The core which is printed using CORE_DPRINTF. Default 0
-enable_ptx_file_line_stats                    1 # Turn on PTX source line statistic profiling. (1 = On)
-ptx_line_stats_filename gpgpu_inst_stats.txt # Output file for PTX source line statistics.
-save_embedded_ptx                      0 # saves ptx files embedded in binary as <n>.ptx
-keep                                   0 # keep intermediate files created by GPGPU-Sim when interfacing with external programs
-gpgpu_ptx_save_converted_ptxplus                    0 # Saved converted ptxplus to a file
-ptx_opcode_latency_int         4,13,4,5,145 # Opcode latencies for integers <ADD,MAX,MUL,MAD,DIV>Default 1,1,19,25,145
-ptx_opcode_latency_fp          4,13,4,5,39 # Opcode latencies for single precision floating points <ADD,MAX,MUL,MAD,DIV>Default 1,1,1,1,30
-ptx_opcode_latency_dp         8,19,8,8,330 # Opcode latencies for double precision floating points <ADD,MAX,MUL,MAD,DIV>Default 8,8,8,8,335
-ptx_opcode_initiation_int            1,2,2,1,8 # Opcode initiation intervals for integers <ADD,MAX,MUL,MAD,DIV>Default 1,1,4,4,32
-ptx_opcode_initiation_fp            1,2,1,1,4 # Opcode initiation intervals for single precision floating points <ADD,MAX,MUL,MAD,DIV>Default599326a94ab801fadad8e07534700f12  /tmp/tmp.iCkclFTsfZ/lbm__SIZE1_1
 1,1,1,1,5
-ptx_opcode_initiation_dp         8,16,8,8,130 # Opcode initiation intervals for double precision floating points <ADD,MAX,MUL,MAD,DIV>Default 8,8,8,8,130
DRAM Timing Options:
nbk                                    16 # number of banks
CCD                                     2 # column to column delay
RRD                                     6 # minimal delay between activation of rows in different banks
RCD                                    12 # row to column delay
RAS                                    28 # time needed to activate row
RP                                     12 # time needed to precharge (deactivate) row
RC                                     40 # row cycle time
CDLR                                    5 # switching from write to read (changes tWTR)
WR                                     12 # last data-in to row precharge
CL                                     12 # CAS latency
WL                                      4 # Write latency
nbkgrp                                  4 # number of bank groups
CCDL                                    3 # column to column delay between accesses to different bank groups
RTPL                                    2 # read to precharge delay between accesses to different bank groups
addr_dec_mask[CHIP]  = 0000000000000000 	high:64 low:0
addr_dec_mask[BK]    = 000000000000f000 	high:16 low:12
addr_dec_mask[ROW]   = 000000000fff0000 	high:28 low:16
addr_dec_mask[COL]   = 0000000000000fff 	high:12 low:0
addr_dec_mask[BURST] = 000000000000003f 	high:6 low:0
*** Initializing Memory Statistics ***
self exe links to: /tmp/tmp.iCkclFTsfZ/lbm__SIZE1_1
Running md5sum using "md5sum /tmp/tmp.iCkclFTsfZ/lbm__SIZE1_1 "
Running cuobjdump using "$CUDA_INSTALL_PATH/bin/cuobjdump -ptx -elf -sass /tmp/tmp.iCkclFTsfZ/lbm__SIZE1_1 > _cuobjdump_complete_output_WJsG26"
Parsing file _cuobjdump_complete_output_WJsG26
######### cuobjdump parser ########
## Adding new section PTX
Adding ptx filename: _cuobjdump_1.ptx
Adding arch: sm_13
Adding identifier: benchmarks/lbm/lbm.cu
## Adding new section ELF
Adding arch: sm_13
Adding identifier: benchmarks/lbm/lbm.cu
Done parsing!!!
Adding _cuobjdump_1.ptx with cubin handle 1
Running: cat _ptx_jKHWXl | sed 's/.version 1.5/.version 1.4/' | sed 's/, texmode_independent//' | sed 's/\(\.extern \.const\[1\] .b8 \w\+\)\[\]/\1\[1\]/' | sed 's/const\[.\]/const\[0\]/g' > _ptx2_qoreTA
LBM_allocateGrid: allocated 185.2 MByte
MAIN_printInfo:
	grid size      : 120 x 120 x 150 = 2.16 * 10^6 Cells
	nTimeSteps     : 2
	result file    : (null)
	action         : store
	simulation type: lid-driven cavity
	obstacle file  : /home/cnugteren/software/parboil-2.5/datasets/lbm/long/input/120_120_150_ldc.of

LBM_allocateGrid: allocated 185.2 MByte
LBM_allocateGrid: allocated 185.2 MByte
LBM_showGridStatistics:
	nObstacleCells:  343321 nAccelCells:   26912 nFluidCells: 1789767
	minRho:   1.0000 maxRho:   1.0000 mass: 2.160000e+06
	minU: 0.000000e+00 maxU: 0.000000e+00


kernel '_Z27performStreamCollide_kernelPfS_' transfer to GPU hardware scheduler
kernel_name = _Z27performStreamCollide_kernelPfS_ 
kernel_launch_uid = 1 
gpu_sim_cycle = 34718863
gpu_sim_insn = 565843056
gpu_ipc =      16.2979
gpu_tot_sim_cycle = 34718863
gpu_tot_sim_insn = 565843056
gpu_tot_ipc =      16.2979
gpu_tot_issued_cta = 0
gpu_stall_dramfull = 54090994
gpu_stall_icnt2sh    = 45395735
gpu_total_sim_rate=42615
Cache L1D_000:	Size = 16384 B (32 Set x 4-way x 128 byte line)
		Access = 1944000, Miss = 1421440 (0.731), PendingHit = 124615 (0.0641)
Cache L1D_001:	Size = 16384 B (32 Set x 4-way x 128 byte line)
		Access = 1887000, Miss = 1475006 (0.782), PendingHit = 110644 (0.0586)
Cache L1D_002:	Size = 16384 B (32 Set x 4-way x 128 byte line)
		Access = 1933500, Miss = 1412284 (0.73), PendingHit = 129630 (0.067)
Cache L1D_003:	Size = 16384 B (32 Set x 4-way x 128 byte line)
		Access = 1891500, Miss = 1459608 (0.772), PendingHit = 115181 (0.0609)
Cache L1D_004:	Size = 16384 B (32 Set x 4-way x 128 byte line)
		Access = 1927500, Miss = 1444875 (0.75), PendingHit = 117375 (0.0609)
Cache L1D_005:	Size = 16384 B (32 Set x 4-way x 128 byte line)
		Access = 1911000, Miss = 1462592 (0.765), PendingHit = 117402 (0.0614)
Cache L1D_006:	Size = 16384 B (32 Set x 4-way x 128 byte line)
		Access = 1932000, Miss = 1439334 (0.745), PendingHit = 123337 (0.0638)
Cache L1D_007:	Size = 16384 B (32 Set x 4-way x 128 byte line)
		Access = 1911000, Miss = 1448250 (0.758), PendingHit = 118235 (0.0619)
Cache L1D_008:	Size = 16384 B (32 Set x 4-way x 128 byte line)
		Access = 1969500, Miss = 1395926 (0.709), PendingHit = 126021 (0.064)
Cache L1D_009:	Size = 16384 B (32 Set x 4-way x 128 byte line)
		Access = 1926000, Miss = 1437524 (0.746), PendingHit = 121174 (0.0629)
Cache L1D_010:	Size = 16384 B (32 Set x 4-way x 128 byte line)
		Access = 1965000, Miss = 1417125 (0.721), PendingHit = 126044 (0.0641)
Cache L1D_011:	Size = 16384 B (32 Set x 4-way x 128 byte line)
		Access = 1942500, Miss = 1421415 (0.732), PendingHit = 122427 (0.063)
Cache L1D_012:	Size = 16384 B (32 Set x 4-way x 128 byte line)
		Access = 1942500, Miss = 1420274 (0.731), PendingHit = 128377 (0.0661)
Cache L1D_013:	Size = 16384 B (32 Set x 4-way x 128 byte line)
		Access = 1917000, Miss = 1438849 (0.751), PendingHit = 114786 (0.0599)
total_dl1_misses=20094502
total_dl1_accesses=27000000
total_dl1_miss_rate= 0.744241
Shader 0 dynamic_warp_id issue ditsribution:
dynamic_warp_id:
0, 1, 2, 3, 4, 5, 6, 7, 8, 9, 10, 11, 12, 13, 14, 15, 16, 17, 18, 19, 20, 21, 22, 23, 24, 25, 26, 27, 28, 29, 30, 31, 32, 33, 34, 35, 36, 37, 38, 39, 40, 41, 42, 43, 44, 45, 46, 47, 48, 49, 50, 51, 52, 53, 54, 55, 56, 57, 58, 59, 60, 61, 62, 63, 64, 65, 66, 67, 68, 69, 70, 71, 72, 73, 74, 75, 76, 77, 78, 79, 80, 81, 82, 83, 84, 85, 86, 87, 88, 89, 90, 91, 92, 93, 94, 95, 96, 97, 98, 99, 100, 101, 102, 103, 104, 105, 106, 107, 108, 109, 110, 111, 112, 113, 114, 115, 116, 117, 118, 119, 120, 121, 122, 123, 124, 125, 126, 127, 128, 129, 130, 131, 132, 133, 134, 135, 136, 137, 138, 139, 140, 141, 142, 143, 144, 145, 146, 147, 148, 149, 150, 151, 152, 153, 154, 155, 156, 157, 158, 159, 160, 161, 162, 163, 164, 165, 166, 167, 168, 169, 170, 171, 172, 173, 174, 175, 176, 177, 178, 179, 180, 181, 182, 183, 184, 185, 186, 187, 188, 189, 190, 191, 192, 193, 194, 195, 196, 197, 198, 199, 200, 201, 202, 203, 204, 205, 206, 207, 208, 209, 210, 211, 212, 213, 214, 215, 216, 217, 218, 219, 220, 221, 222, 223, 224, 225, 226, 227, 228, 229, 230, 231, 232, 233, 234, 235, 236, 237, 238, 239, 240, 241, 242, 243, 244, 245, 246, 247, 248, 249, 250, 251, 252, 253, 254, 255, 256, 257, 258, 259, 260, 261, 262, 263, 264, 265, 266, 267, 268, 269, 270, 271, 272, 273, 274, 275, 276, 277, 278, 279, 280, 281, 282, 283, 284, 285, 286, 287, 288, 289, 290, 291, 292, 293, 294, 295, 296, 297, 298, 299, 300, 301, 302, 303, 304, 305, 306, 307, 308, 309, 310, 311, 312, 313, 314, 315, 316, 317, 318, 319, 320, 321, 322, 323, 324, 325, 326, 327, 328, 329, 330, 331, 332, 333, 334, 335, 336, 337, 338, 339, 340, 341, 342, 343, 344, 345, 346, 347, 348, 349, 350, 351, 352, 353, 354, 355, 356, 357, 358, 359, 360, 361, 362, 363, 364, 365, 366, 367, 368, 369, 370, 371, 372, 373, 374, 375, 376, 377, 378, 379, 380, 381, 382, 383, 384, 385, 386, 387, 388, 389, 390, 391, 392, 393, 394, 395, 396, 397, 398, 399, 400, 401, 402, 403, 404, 405, 406, 407, 408, 409, 410, 411, 412, 413, 414, 415, 416, 417, 418, 419, 420, 421, 422, 423, 424, 425, 426, 427, 428, 429, 430, 431, 432, 433, 434, 435, 436, 437, 438, 439, 440, 441, 442, 443, 444, 445, 446, 447, 448, 449, 450, 451, 452, 453, 454, 455, 456, 457, 458, 459, 460, 461, 462, 463, 464, 465, 466, 467, 468, 469, 470, 471, 472, 473, 474, 475, 476, 477, 478, 479, 480, 481, 482, 483, 484, 485, 486, 487, 488, 489, 490, 491, 492, 493, 494, 495, 496, 497, 498, 499, 500, 501, 502, 503, 504, 505, 506, 507, 508, 509, 510, 511, 512, 513, 514, 515, 516, 517, 518, 519, 520, 521, 522, 523, 524, 525, 526, 527, 528, 529, 530, 531, 532, 533, 534, 535, 536, 537, 538, 539, 540, 541, 542, 543, 544, 545, 546, 547, 548, 549, 550, 551, 552, 553, 554, 555, 556, 557, 558, 559, 560, 561, 562, 563, 564, 565, 566, 567, 568, 569, 570, 571, 572, 573, 574, 575, 576, 577, 578, 579, 580, 581, 582, 583, 584, 585, 586, 587, 588, 589, 590, 591, 592, 593, 594, 595, 596, 597, 598, 599, 600, 601, 602, 603, 604, 605, 606, 607, 608, 609, 610, 611, 612, 613, 614, 615, 616, 617, 618, 619, 620, 621, 622, 623, 624, 625, 626, 627, 628, 629, 630, 631, 632, 633, 634, 635, 636, 637, 638, 639, 640, 641, 642, 643, 644, 645, 646, 647, 648, 649, 650, 651, 652, 653, 654, 655, 656, 657, 658, 659, 660, 661, 662, 663, 664, 665, 666, 667, 668, 669, 670, 671, 672, 673, 674, 675, 676, 677, 678, 679, 680, 681, 682, 683, 684, 685, 686, 687, 688, 689, 690, 691, 692, 693, 694, 695, 696, 697, 698, 699, 700, 701, 702, 703, 704, 705, 706, 707, 708, 709, 710, 711, 712, 713, 714, 715, 716, 717, 718, 719, 720, 721, 722, 723, 724, 725, 726, 727, 728, 729, 730, 731, 732, 733, 734, 735, 736, 737, 738, 739, 740, 741, 742, 743, 744, 745, 746, 747, 748, 749, 750, 751, 752, 753, 754, 755, 756, 757, 758, 759, 760, 761, 762, 763, 764, 765, 766, 767, 768, 769, 770, 771, 772, 773, 774, 775, 776, 777, 778, 779, 780, 781, 782, 783, 784, 785, 786, 787, 788, 789, 790, 791, 792, 793, 794, 795, 796, 797, 798, 799, 800, 801, 802, 803, 804, 805, 806, 807, 808, 809, 810, 811, 812, 813, 814, 815, 816, 817, 818, 819, 820, 821, 822, 823, 824, 825, 826, 827, 828, 829, 830, 831, 832, 833, 834, 835, 836, 837, 838, 839, 840, 841, 842, 843, 844, 845, 846, 847, 848, 849, 850, 851, 852, 853, 854, 855, 856, 857, 858, 859, 860, 861, 862, 863, 864, 865, 866, 867, 868, 869, 870, 871, 872, 873, 874, 875, 876, 877, 878, 879, 880, 881, 882, 883, 884, 885, 886, 887, 888, 889, 890, 891, 892, 893, 894, 895, 896, 897, 898, 899, 900, 901, 902, 903, 904, 905, 906, 907, 908, 909, 910, 911, 912, 913, 914, 915, 916, 917, 918, 919, 920, 921, 922, 923, 924, 925, 926, 927, 928, 929, 930, 931, 932, 933, 934, 935, 936, 937, 938, 939, 940, 941, 942, 943, 944, 945, 946, 947, 948, 949, 950, 951, 952, 953, 954, 955, 956, 957, 958, 959, 960, 961, 962, 963, 964, 965, 966, 967, 968, 969, 970, 971, 972, 973, 974, 975, 976, 977, 978, 979, 980, 981, 982, 983, 984, 985, 986, 987, 988, 989, 990, 991, 992, 993, 994, 995, 996, 997, 998, 999, 1000, 1001, 1002, 1003, 1004, 1005, 1006, 1007, 1008, 1009, 1010, 1011, 1012, 1013, 1014, 1015, 1016, 1017, 1018, 1019, 1020, 1021, 1022, 1023, 1024, 1025, 1026, 1027, 1028, 1029, 1030, 1031, 1032, 1033, 1034, 1035, 1036, 1037, 1038, 1039, 1040, 1041, 1042, 1043, 1044, 1045, 1046, 1047, 1048, 1049, 1050, 1051, 1052, 1053, 1054, 1055, 1056, 1057, 1058, 1059, 1060, 1061, 1062, 1063, 1064, 1065, 1066, 1067, 1068, 1069, 1070, 1071, 1072, 1073, 1074, 1075, 1076, 1077, 1078, 1079, 1080, 1081, 1082, 1083, 1084, 1085, 1086, 1087, 1088, 1089, 1090, 1091, 1092, 1093, 1094, 1095, 1096, 1097, 1098, 1099, 1100, 1101, 1102, 1103, 1104, 1105, 1106, 1107, 1108, 1109, 1110, 1111, 1112, 1113, 1114, 1115, 1116, 1117, 1118, 1119, 1120, 1121, 1122, 1123, 1124, 1125, 1126, 1127, 1128, 1129, 1130, 1131, 1132, 1133, 1134, 1135, 1136, 1137, 1138, 1139, 1140, 1141, 1142, 1143, 1144, 1145, 1146, 1147, 1148, 1149, 1150, 1151, 1152, 1153, 1154, 1155, 1156, 1157, 1158, 1159, 1160, 1161, 1162, 1163, 1164, 1165, 1166, 1167, 1168, 1169, 1170, 1171, 1172, 1173, 1174, 1175, 1176, 1177, 1178, 1179, 1180, 1181, 1182, 1183, 1184, 1185, 1186, 1187, 1188, 1189, 1190, 1191, 1192, 1193, 1194, 1195, 1196, 1197, 1198, 1199, 1200, 1201, 1202, 1203, 1204, 1205, 1206, 1207, 1208, 1209, 1210, 1211, 1212, 1213, 1214, 1215, 1216, 1217, 1218, 1219, 1220, 1221, 1222, 1223, 1224, 1225, 1226, 1227, 1228, 1229, 1230, 1231, 1232, 1233, 1234, 1235, 1236, 1237, 1238, 1239, 1240, 1241, 1242, 1243, 1244, 1245, 1246, 1247, 1248, 1249, 1250, 1251, 1252, 1253, 1254, 1255, 1256, 1257, 1258, 1259, 1260, 1261, 1262, 1263, 1264, 1265, 1266, 1267, 1268, 1269, 1270, 1271, 1272, 1273, 1274, 1275, 1276, 1277, 1278, 1279, 1280, 1281, 1282, 1283, 1284, 1285, 1286, 1287, 1288, 1289, 1290, 1291, 1292, 1293, 1294, 1295, 1296, 1297, 1298, 1299, 1300, 1301, 1302, 1303, 1304, 1305, 1306, 1307, 1308, 1309, 1310, 1311, 1312, 1313, 1314, 1315, 1316, 1317, 1318, 1319, 1320, 1321, 1322, 1323, 1324, 1325, 1326, 1327, 1328, 1329, 1330, 1331, 1332, 1333, 1334, 1335, 1336, 1337, 1338, 1339, 1340, 1341, 1342, 1343, 1344, 1345, 1346, 1347, 1348, 1349, 1350, 1351, 1352, 1353, 1354, 1355, 1356, 1357, 1358, 1359, 1360, 1361, 1362, 1363, 1364, 1365, 1366, 1367, 1368, 1369, 1370, 1371, 1372, 1373, 1374, 1375, 1376, 1377, 1378, 1379, 1380, 1381, 1382, 1383, 1384, 1385, 1386, 1387, 1388, 1389, 1390, 1391, 1392, 1393, 1394, 1395, 1396, 1397, 1398, 1399, 1400, 1401, 1402, 1403, 1404, 1405, 1406, 1407, 1408, 1409, 1410, 1411, 1412, 1413, 1414, 1415, 1416, 1417, 1418, 1419, 1420, 1421, 1422, 1423, 1424, 1425, 1426, 1427, 1428, 1429, 1430, 1431, 1432, 1433, 1434, 1435, 1436, 1437, 1438, 1439, 1440, 1441, 1442, 1443, 1444, 1445, 1446, 1447, 1448, 1449, 1450, 1451, 1452, 1453, 1454, 1455, 1456, 1457, 1458, 1459, 1460, 1461, 1462, 1463, 1464, 1465, 1466, 1467, 1468, 1469, 1470, 1471, 1472, 1473, 1474, 1475, 1476, 1477, 1478, 1479, 1480, 1481, 1482, 1483, 1484, 1485, 1486, 1487, 1488, 1489, 1490, 1491, 1492, 1493, 1494, 1495, 1496, 1497, 1498, 1499, 1500, 1501, 1502, 1503, 1504, 1505, 1506, 1507, 1508, 1509, 1510, 1511, 1512, 1513, 1514, 1515, 1516, 1517, 1518, 1519, 1520, 1521, 1522, 1523, 1524, 1525, 1526, 1527, 1528, 1529, 1530, 1531, 1532, 1533, 1534, 1535, 1536, 1537, 1538, 1539, 1540, 1541, 1542, 1543, 1544, 1545, 1546, 1547, 1548, 1549, 1550, 1551, 1552, 1553, 1554, 1555, 1556, 1557, 1558, 1559, 1560, 1561, 1562, 1563, 1564, 1565, 1566, 1567, 1568, 1569, 1570, 1571, 1572, 1573, 1574, 1575, 1576, 1577, 1578, 1579, 1580, 1581, 1582, 1583, 1584, 1585, 1586, 1587, 1588, 1589, 1590, 1591, 1592, 1593, 1594, 1595, 1596, 1597, 1598, 1599, 1600, 1601, 1602, 1603, 1604, 1605, 1606, 1607, 1608, 1609, 1610, 1611, 1612, 1613, 1614, 1615, 1616, 1617, 1618, 1619, 1620, 1621, 1622, 1623, 1624, 1625, 1626, 1627, 1628, 1629, 1630, 1631, 1632, 1633, 1634, 1635, 1636, 1637, 1638, 1639, 1640, 1641, 1642, 1643, 1644, 1645, 1646, 1647, 1648, 1649, 1650, 1651, 1652, 1653, 1654, 1655, 1656, 1657, 1658, 1659, 1660, 1661, 1662, 1663, 1664, 1665, 1666, 1667, 1668, 1669, 1670, 1671, 1672, 1673, 1674, 1675, 1676, 1677, 1678, 1679, 1680, 1681, 1682, 1683, 1684, 1685, 1686, 1687, 1688, 1689, 1690, 1691, 1692, 1693, 1694, 1695, 1696, 1697, 1698, 1699, 1700, 1701, 1702, 1703, 1704, 1705, 1706, 1707, 1708, 1709, 1710, 1711, 1712, 1713, 1714, 1715, 1716, 1717, 1718, 1719, 1720, 1721, 1722, 1723, 1724, 1725, 1726, 1727, 1728, 1729, 1730, 1731, 1732, 1733, 1734, 1735, 1736, 1737, 1738, 1739, 1740, 1741, 1742, 1743, 1744, 1745, 1746, 1747, 1748, 1749, 1750, 1751, 1752, 1753, 1754, 1755, 1756, 1757, 1758, 1759, 1760, 1761, 1762, 1763, 1764, 1765, 1766, 1767, 1768, 1769, 1770, 1771, 1772, 1773, 1774, 1775, 1776, 1777, 1778, 1779, 1780, 1781, 1782, 1783, 1784, 1785, 1786, 1787, 1788, 1789, 1790, 1791, 1792, 1793, 1794, 1795, 1796, 1797, 1798, 1799, 1800, 1801, 1802, 1803, 1804, 1805, 1806, 1807, 1808, 1809, 1810, 1811, 1812, 1813, 1814, 1815, 1816, 1817, 1818, 1819, 1820, 1821, 1822, 1823, 1824, 1825, 1826, 1827, 1828, 1829, 1830, 1831, 1832, 1833, 1834, 1835, 1836, 1837, 1838, 1839, 1840, 1841, 1842, 1843, 1844, 1845, 1846, 1847, 1848, 1849, 1850, 1851, 1852, 1853, 1854, 1855, 1856, 1857, 1858, 1859, 1860, 1861, 1862, 1863, 1864, 1865, 1866, 1867, 1868, 1869, 1870, 1871, 1872, 1873, 1874, 1875, 1876, 1877, 1878, 1879, 1880, 1881, 1882, 1883, 1884, 1885, 1886, 1887, 1888, 1889, 1890, 1891, 1892, 1893, 1894, 1895, 1896, 1897, 1898, 1899, 1900, 1901, 1902, 1903, 1904, 1905, 1906, 1907, 1908, 1909, 1910, 1911, 1912, 1913, 1914, 1915, 1916, 1917, 1918, 1919, 1920, 1921, 1922, 1923, 1924, 1925, 1926, 1927, 1928, 1929, 1930, 1931, 1932, 1933, 1934, 1935, 1936, 1937, 1938, 1939, 1940, 1941, 1942, 1943, 1944, 1945, 1946, 1947, 1948, 1949, 1950, 1951, 1952, 1953, 1954, 1955, 1956, 1957, 1958, 1959, 1960, 1961, 1962, 1963, 1964, 1965, 1966, 1967, 1968, 1969, 1970, 1971, 1972, 1973, 1974, 1975, 1976, 1977, 1978, 1979, 1980, 1981, 1982, 1983, 1984, 1985, 1986, 1987, 1988, 1989, 1990, 1991, 1992, 1993, 1994, 1995, 1996, 1997, 1998, 1999, 2000, 2001, 2002, 2003, 2004, 2005, 2006, 2007, 2008, 2009, 2010, 2011, 2012, 2013, 2014, 2015, 2016, 2017, 2018, 2019, 2020, 2021, 2022, 2023, 2024, 2025, 2026, 2027, 2028, 2029, 2030, 2031, 2032, 2033, 2034, 2035, 2036, 2037, 2038, 2039, 2040, 2041, 2042, 2043, 2044, 2045, 2046, 2047, 2048, 2049, 2050, 2051, 2052, 2053, 2054, 2055, 2056, 2057, 2058, 2059, 2060, 2061, 2062, 2063, 2064, 2065, 2066, 2067, 2068, 2069, 2070, 2071, 2072, 2073, 2074, 2075, 2076, 2077, 2078, 2079, 2080, 2081, 2082, 2083, 2084, 2085, 2086, 2087, 2088, 2089, 2090, 2091, 2092, 2093, 2094, 2095, 2096, 2097, 2098, 2099, 2100, 2101, 2102, 2103, 2104, 2105, 2106, 2107, 2108, 2109, 2110, 2111, 2112, 2113, 2114, 2115, 2116, 2117, 2118, 2119, 2120, 2121, 2122, 2123, 2124, 2125, 2126, 2127, 2128, 2129, 2130, 2131, 2132, 2133, 2134, 2135, 2136, 2137, 2138, 2139, 2140, 2141, 2142, 2143, 2144, 2145, 2146, 2147, 2148, 2149, 2150, 2151, 2152, 2153, 2154, 2155, 2156, 2157, 2158, 2159, 2160, 2161, 2162, 2163, 2164, 2165, 2166, 2167, 2168, 2169, 2170, 2171, 2172, 2173, 2174, 2175, 2176, 2177, 2178, 2179, 2180, 2181, 2182, 2183, 2184, 2185, 2186, 2187, 2188, 2189, 2190, 2191, 2192, 2193, 2194, 2195, 2196, 2197, 2198, 2199, 2200, 2201, 2202, 2203, 2204, 2205, 2206, 2207, 2208, 2209, 2210, 2211, 2212, 2213, 2214, 2215, 2216, 2217, 2218, 2219, 2220, 2221, 2222, 2223, 2224, 2225, 2226, 2227, 2228, 2229, 2230, 2231, 2232, 2233, 2234, 2235, 2236, 2237, 2238, 2239, 2240, 2241, 2242, 2243, 2244, 2245, 2246, 2247, 2248, 2249, 2250, 2251, 2252, 2253, 2254, 2255, 2256, 2257, 2258, 2259, 2260, 2261, 2262, 2263, 2264, 2265, 2266, 2267, 2268, 2269, 2270, 2271, 2272, 2273, 2274, 2275, 2276, 2277, 2278, 2279, 2280, 2281, 2282, 2283, 2284, 2285, 2286, 2287, 2288, 2289, 2290, 2291, 2292, 2293, 2294, 2295, 2296, 2297, 2298, 2299, 2300, 2301, 2302, 2303, 2304, 2305, 2306, 2307, 2308, 2309, 2310, 2311, 2312, 2313, 2314, 2315, 2316, 2317, 2318, 2319, 2320, 2321, 2322, 2323, 2324, 2325, 2326, 2327, 2328, 2329, 2330, 2331, 2332, 2333, 2334, 2335, 2336, 2337, 2338, 2339, 2340, 2341, 2342, 2343, 2344, 2345, 2346, 2347, 2348, 2349, 2350, 2351, 2352, 2353, 2354, 2355, 2356, 2357, 2358, 2359, 2360, 2361, 2362, 2363, 2364, 2365, 2366, 2367, 2368, 2369, 2370, 2371, 2372, 2373, 2374, 2375, 2376, 2377, 2378, 2379, 2380, 2381, 2382, 2383, 2384, 2385, 2386, 2387, 2388, 2389, 2390, 2391, 2392, 2393, 2394, 2395, 2396, 2397, 2398, 2399, 2400, 2401, 2402, 2403, 2404, 2405, 2406, 2407, 2408, 2409, 2410, 2411, 2412, 2413, 2414, 2415, 2416, 2417, 2418, 2419, 2420, 2421, 2422, 2423, 2424, 2425, 2426, 2427, 2428, 2429, 2430, 2431, 2432, 2433, 2434, 2435, 2436, 2437, 2438, 2439, 2440, 2441, 2442, 2443, 2444, 2445, 2446, 2447, 2448, 2449, 2450, 2451, 2452, 2453, 2454, 2455, 2456, 2457, 2458, 2459, 2460, 2461, 2462, 2463, 2464, 2465, 2466, 2467, 2468, 2469, 2470, 2471, 2472, 2473, 2474, 2475, 2476, 2477, 2478, 2479, 2480, 2481, 2482, 2483, 2484, 2485, 2486, 2487, 2488, 2489, 2490, 2491, 2492, 2493, 2494, 2495, 2496, 2497, 2498, 2499, 2500, 2501, 2502, 2503, 2504, 2505, 2506, 2507, 2508, 2509, 2510, 2511, 2512, 2513, 2514, 2515, 2516, 2517, 2518, 2519, 2520, 2521, 2522, 2523, 2524, 2525, 2526, 2527, 2528, 2529, 2530, 2531, 2532, 2533, 2534, 2535, 2536, 2537, 2538, 2539, 2540, 2541, 2542, 2543, 2544, 2545, 2546, 2547, 2548, 2549, 2550, 2551, 2552, 2553, 2554, 2555, 2556, 2557, 2558, 2559, 2560, 2561, 2562, 2563, 2564, 2565, 2566, 2567, 2568, 2569, 2570, 2571, 2572, 2573, 2574, 2575, 2576, 2577, 2578, 2579, 2580, 2581, 2582, 2583, 2584, 2585, 2586, 2587, 2588, 2589, 2590, 2591, 2592, 2593, 2594, 2595, 2596, 2597, 2598, 2599, 2600, 2601, 2602, 2603, 2604, 2605, 2606, 2607, 2608, 2609, 2610, 2611, 2612, 2613, 2614, 2615, 2616, 2617, 2618, 2619, 2620, 2621, 2622, 2623, 2624, 2625, 2626, 2627, 2628, 2629, 2630, 2631, 2632, 2633, 2634, 2635, 2636, 2637, 2638, 2639, 2640, 2641, 2642, 2643, 2644, 2645, 2646, 2647, 2648, 2649, 2650, 2651, 2652, 2653, 2654, 2655, 2656, 2657, 2658, 2659, 2660, 2661, 2662, 2663, 2664, 2665, 2666, 2667, 2668, 2669, 2670, 2671, 2672, 2673, 2674, 2675, 2676, 2677, 2678, 2679, 2680, 2681, 2682, 2683, 2684, 2685, 2686, 2687, 2688, 2689, 2690, 2691, 2692, 2693, 2694, 2695, 2696, 2697, 2698, 2699, 2700, 2701, 2702, 2703, 2704, 2705, 2706, 2707, 2708, 2709, 2710, 2711, 2712, 2713, 2714, 2715, 2716, 2717, 2718, 2719, 2720, 2721, 2722, 2723, 2724, 2725, 2726, 2727, 2728, 2729, 2730, 2731, 2732, 2733, 2734, 2735, 2736, 2737, 2738, 2739, 2740, 2741, 2742, 2743, 2744, 2745, 2746, 2747, 2748, 2749, 2750, 2751, 2752, 2753, 2754, 2755, 2756, 2757, 2758, 2759, 2760, 2761, 2762, 2763, 2764, 2765, 2766, 2767, 2768, 2769, 2770, 2771, 2772, 2773, 2774, 2775, 2776, 2777, 2778, 2779, 2780, 2781, 2782, 2783, 2784, 2785, 2786, 2787, 2788, 2789, 2790, 2791, 2792, 2793, 2794, 2795, 2796, 2797, 2798, 2799, 2800, 2801, 2802, 2803, 2804, 2805, 2806, 2807, 2808, 2809, 2810, 2811, 2812, 2813, 2814, 2815, 2816, 2817, 2818, 2819, 2820, 2821, 2822, 2823, 2824, 2825, 2826, 2827, 2828, 2829, 2830, 2831, 2832, 2833, 2834, 2835, 2836, 2837, 2838, 2839, 2840, 2841, 2842, 2843, 2844, 2845, 2846, 2847, 2848, 2849, 2850, 2851, 2852, 2853, 2854, 2855, 2856, 2857, 2858, 2859, 2860, 2861, 2862, 2863, 2864, 2865, 2866, 2867, 2868, 2869, 2870, 2871, 2872, 2873, 2874, 2875, 2876, 2877, 2878, 2879, 2880, 2881, 2882, 2883, 2884, 2885, 2886, 2887, 2888, 2889, 2890, 2891, 2892, 2893, 2894, 2895, 2896, 2897, 2898, 2899, 2900, 2901, 2902, 2903, 2904, 2905, 2906, 2907, 2908, 2909, 2910, 2911, 2912, 2913, 2914, 2915, 2916, 2917, 2918, 2919, 2920, 2921, 2922, 2923, 2924, 2925, 2926, 2927, 2928, 2929, 2930, 2931, 2932, 2933, 2934, 2935, 2936, 2937, 2938, 2939, 2940, 2941, 2942, 2943, 2944, 2945, 2946, 2947, 2948, 2949, 2950, 2951, 2952, 2953, 2954, 2955, 2956, 2957, 2958, 2959, 2960, 2961, 2962, 2963, 2964, 2965, 2966, 2967, 2968, 2969, 2970, 2971, 2972, 2973, 2974, 2975, 2976, 2977, 2978, 2979, 2980, 2981, 2982, 2983, 2984, 2985, 2986, 2987, 2988, 2989, 2990, 2991, 2992, 2993, 2994, 2995, 2996, 2997, 2998, 2999, 3000, 3001, 3002, 3003, 3004, 3005, 3006, 3007, 3008, 3009, 3010, 3011, 3012, 3013, 3014, 3015, 3016, 3017, 3018, 3019, 3020, 3021, 3022, 3023, 3024, 3025, 3026, 3027, 3028, 3029, 3030, 3031, 3032, 3033, 3034, 3035, 3036, 3037, 3038, 3039, 3040, 3041, 3042, 3043, 3044, 3045, 3046, 3047, 3048, 3049, 3050, 3051, 3052, 3053, 3054, 3055, 3056, 3057, 3058, 3059, 3060, 3061, 3062, 3063, 3064, 3065, 3066, 3067, 3068, 3069, 3070, 3071, 3072, 3073, 3074, 3075, 3076, 3077, 3078, 3079, 3080, 3081, 3082, 3083, 3084, 3085, 3086, 3087, 3088, 3089, 3090, 3091, 3092, 3093, 3094, 3095, 3096, 3097, 3098, 3099, 3100, 3101, 3102, 3103, 3104, 3105, 3106, 3107, 3108, 3109, 3110, 3111, 3112, 3113, 3114, 3115, 3116, 3117, 3118, 3119, 3120, 3121, 3122, 3123, 3124, 3125, 3126, 3127, 3128, 3129, 3130, 3131, 3132, 3133, 3134, 3135, 3136, 3137, 3138, 3139, 3140, 3141, 3142, 3143, 3144, 3145, 3146, 3147, 3148, 3149, 3150, 3151, 3152, 3153, 3154, 3155, 3156, 3157, 3158, 3159, 3160, 3161, 3162, 3163, 3164, 3165, 3166, 3167, 3168, 3169, 3170, 3171, 3172, 3173, 3174, 3175, 3176, 3177, 3178, 3179, 3180, 3181, 3182, 3183, 3184, 3185, 3186, 3187, 3188, 3189, 3190, 3191, 3192, 3193, 3194, 3195, 3196, 3197, 3198, 3199, 3200, 3201, 3202, 3203, 3204, 3205, 3206, 3207, 3208, 3209, 3210, 3211, 3212, 3213, 3214, 3215, 3216, 3217, 3218, 3219, 3220, 3221, 3222, 3223, 3224, 3225, 3226, 3227, 3228, 3229, 3230, 3231, 3232, 3233, 3234, 3235, 3236, 3237, 3238, 3239, 3240, 3241, 3242, 3243, 3244, 3245, 3246, 3247, 3248, 3249, 3250, 3251, 3252, 3253, 3254, 3255, 3256, 3257, 3258, 3259, 3260, 3261, 3262, 3263, 3264, 3265, 3266, 3267, 3268, 3269, 3270, 3271, 3272, 3273, 3274, 3275, 3276, 3277, 3278, 3279, 3280, 3281, 3282, 3283, 3284, 3285, 3286, 3287, 3288, 3289, 3290, 3291, 3292, 3293, 3294, 3295, 3296, 3297, 3298, 3299, 3300, 3301, 3302, 3303, 3304, 3305, 3306, 3307, 3308, 3309, 3310, 3311, 3312, 3313, 3314, 3315, 3316, 3317, 3318, 3319, 3320, 3321, 3322, 3323, 3324, 3325, 3326, 3327, 3328, 3329, 3330, 3331, 3332, 3333, 3334, 3335, 3336, 3337, 3338, 3339, 3340, 3341, 3342, 3343, 3344, 3345, 3346, 3347, 3348, 3349, 3350, 3351, 3352, 3353, 3354, 3355, 3356, 3357, 3358, 3359, 3360, 3361, 3362, 3363, 3364, 3365, 3366, 3367, 3368, 3369, 3370, 3371, 3372, 3373, 3374, 3375, 3376, 3377, 3378, 3379, 3380, 3381, 3382, 3383, 3384, 3385, 3386, 3387, 3388, 3389, 3390, 3391, 3392, 3393, 3394, 3395, 3396, 3397, 3398, 3399, 3400, 3401, 3402, 3403, 3404, 3405, 3406, 3407, 3408, 3409, 3410, 3411, 3412, 3413, 3414, 3415, 3416, 3417, 3418, 3419, 3420, 3421, 3422, 3423, 3424, 3425, 3426, 3427, 3428, 3429, 3430, 3431, 3432, 3433, 3434, 3435, 3436, 3437, 3438, 3439, 3440, 3441, 3442, 3443, 3444, 3445, 3446, 3447, 3448, 3449, 3450, 3451, 3452, 3453, 3454, 3455, 3456, 3457, 3458, 3459, 3460, 3461, 3462, 3463, 3464, 3465, 3466, 3467, 3468, 3469, 3470, 3471, 3472, 3473, 3474, 3475, 3476, 3477, 3478, 3479, 3480, 3481, 3482, 3483, 3484, 3485, 3486, 3487, 3488, 3489, 3490, 3491, 3492, 3493, 3494, 3495, 3496, 3497, 3498, 3499, 3500, 3501, 3502, 3503, 3504, 3505, 3506, 3507, 3508, 3509, 3510, 3511, 3512, 3513, 3514, 3515, 3516, 3517, 3518, 3519, 3520, 3521, 3522, 3523, 3524, 3525, 3526, 3527, 3528, 3529, 3530, 3531, 3532, 3533, 3534, 3535, 3536, 3537, 3538, 3539, 3540, 3541, 3542, 3543, 3544, 3545, 3546, 3547, 3548, 3549, 3550, 3551, 3552, 3553, 3554, 3555, 3556, 3557, 3558, 3559, 3560, 3561, 3562, 3563, 3564, 3565, 3566, 3567, 3568, 3569, 3570, 3571, 3572, 3573, 3574, 3575, 3576, 3577, 3578, 3579, 3580, 3581, 3582, 3583, 3584, 3585, 3586, 3587, 3588, 3589, 3590, 3591, 3592, 3593, 3594, 3595, 3596, 3597, 3598, 3599, 3600, 3601, 3602, 3603, 3604, 3605, 3606, 3607, 3608, 3609, 3610, 3611, 3612, 3613, 3614, 3615, 3616, 3617, 3618, 3619, 3620, 3621, 3622, 3623, 3624, 3625, 3626, 3627, 3628, 3629, 3630, 3631, 3632, 3633, 3634, 3635, 3636, 3637, 3638, 3639, 3640, 3641, 3642, 3643, 3644, 3645, 3646, 3647, 3648, 3649, 3650, 3651, 3652, 3653, 3654, 3655, 3656, 3657, 3658, 3659, 3660, 3661, 3662, 3663, 3664, 3665, 3666, 3667, 3668, 3669, 3670, 3671, 3672, 3673, 3674, 3675, 3676, 3677, 3678, 3679, 3680, 3681, 3682, 3683, 3684, 3685, 3686, 3687, 3688, 3689, 3690, 3691, 3692, 3693, 3694, 3695, 3696, 3697, 3698, 3699, 3700, 3701, 3702, 3703, 3704, 3705, 3706, 3707, 3708, 3709, 3710, 3711, 3712, 3713, 3714, 3715, 3716, 3717, 3718, 3719, 3720, 3721, 3722, 3723, 3724, 3725, 3726, 3727, 3728, 3729, 3730, 3731, 3732, 3733, 3734, 3735, 3736, 3737, 3738, 3739, 3740, 3741, 3742, 3743, 3744, 3745, 3746, 3747, 3748, 3749, 3750, 3751, 3752, 3753, 3754, 3755, 3756, 3757, 3758, 3759, 3760, 3761, 3762, 3763, 3764, 3765, 3766, 3767, 3768, 3769, 3770, 3771, 3772, 3773, 3774, 3775, 3776, 3777, 3778, 3779, 3780, 3781, 3782, 3783, 3784, 3785, 3786, 3787, 3788, 3789, 3790, 3791, 3792, 3793, 3794, 3795, 3796, 3797, 3798, 3799, 3800, 3801, 3802, 3803, 3804, 3805, 3806, 3807, 3808, 3809, 3810, 3811, 3812, 3813, 3814, 3815, 3816, 3817, 3818, 3819, 3820, 3821, 3822, 3823, 3824, 3825, 3826, 3827, 3828, 3829, 3830, 3831, 3832, 3833, 3834, 3835, 3836, 3837, 3838, 3839, 3840, 3841, 3842, 3843, 3844, 3845, 3846, 3847, 3848, 3849, 3850, 3851, 3852, 3853, 3854, 3855, 3856, 3857, 3858, 3859, 3860, 3861, 3862, 3863, 3864, 3865, 3866, 3867, 3868, 3869, 3870, 3871, 3872, 3873, 3874, 3875, 3876, 3877, 3878, 3879, 3880, 3881, 3882, 3883, 3884, 3885, 3886, 3887, 3888, 3889, 3890, 3891, 3892, 3893, 3894, 3895, 3896, 3897, 3898, 3899, 3900, 3901, 3902, 3903, 3904, 3905, 3906, 3907, 3908, 3909, 3910, 3911, 3912, 3913, 3914, 3915, 3916, 3917, 3918, 3919, 3920, 3921, 3922, 3923, 3924, 3925, 3926, 3927, 3928, 3929, 3930, 3931, 3932, 3933, 3934, 3935, 3936, 3937, 3938, 3939, 3940, 3941, 3942, 3943, 3944, 3945, 3946, 3947, 3948, 3949, 3950, 3951, 3952, 3953, 3954, 3955, 3956, 3957, 3958, 3959, 3960, 3961, 3962, 3963, 3964, 3965, 3966, 3967, 3968, 3969, 3970, 3971, 3972, 3973, 3974, 3975, 3976, 3977, 3978, 3979, 3980, 3981, 3982, 3983, 3984, 3985, 3986, 3987, 3988, 3989, 3990, 3991, 3992, 3993, 3994, 3995, 3996, 3997, 3998, 3999, 4000, 4001, 4002, 4003, 4004, 4005, 4006, 4007, 4008, 4009, 4010, 4011, 4012, 4013, 4014, 4015, 4016, 4017, 4018, 4019, 4020, 4021, 4022, 4023, 4024, 4025, 4026, 4027, 4028, 4029, 4030, 4031, 4032, 4033, 4034, 4035, 4036, 4037, 4038, 4039, 4040, 4041, 4042, 4043, 4044, 4045, 4046, 4047, 4048, 4049, 4050, 4051, 4052, 4053, 4054, 4055, 4056, 4057, 4058, 4059, 4060, 4061, 4062, 4063, 4064, 4065, 4066, 4067, 4068, 4069, 4070, 4071, 4072, 4073, 4074, 4075, 4076, 4077, 4078, 4079, 4080, 4081, 4082, 4083, 4084, 4085, 4086, 4087, 4088, 4089, 4090, 4091, 4092, 4093, 4094, 4095, 4096, 4097, 4098, 4099, 4100, 4101, 4102, 4103, 4104, 4105, 4106, 4107, 4108, 4109, 4110, 4111, 4112, 4113, 4114, 4115, 4116, 4117, 4118, 4119, 4120, 4121, 4122, 4123, 4124, 4125, 4126, 4127, 4128, 4129, 4130, 4131, 4132, 4133, 4134, 4135, 4136, 4137, 4138, 4139, 4140, 4141, 4142, 4143, 4144, 4145, 4146, 4147, 4148, 4149, 4150, 4151, 4152, 4153, 4154, 4155, 4156, 4157, 4158, 4159, 4160, 4161, 4162, 4163, 4164, 4165, 4166, 4167, 4168, 4169, 4170, 4171, 4172, 4173, 4174, 4175, 4176, 4177, 4178, 4179, 4180, 4181, 4182, 4183, 4184, 4185, 4186, 4187, 4188, 4189, 4190, 4191, 4192, 4193, 4194, 4195, 4196, 4197, 4198, 4199, 4200, 4201, 4202, 4203, 4204, 4205, 4206, 4207, 4208, 4209, 4210, 4211, 4212, 4213, 4214, 4215, 4216, 4217, 4218, 4219, 4220, 4221, 4222, 4223, 4224, 4225, 4226, 4227, 4228, 4229, 4230, 4231, 4232, 4233, 4234, 4235, 4236, 4237, 4238, 4239, 4240, 4241, 4242, 4243, 4244, 4245, 4246, 4247, 4248, 4249, 4250, 4251, 4252, 4253, 4254, 4255, 4256, 4257, 4258, 4259, 4260, 4261, 4262, 4263, 4264, 4265, 4266, 4267, 4268, 4269, 4270, 4271, 4272, 4273, 4274, 4275, 4276, 4277, 4278, 4279, 4280, 4281, 4282, 4283, 4284, 4285, 4286, 4287, 4288, 4289, 4290, 4291, 4292, 4293, 4294, 4295, 4296, 4297, 4298, 4299, 4300, 4301, 4302, 4303, 4304, 4305, 4306, 4307, 4308, 4309, 4310, 4311, 4312, 4313, 4314, 4315, 4316, 4317, 4318, 4319, 4320, 4321, 4322, 4323, 4324, 4325, 4326, 4327, 4328, 4329, 4330, 4331, 4332, 4333, 4334, 4335, 4336, 4337, 4338, 4339, 4340, 4341, 4342, 4343, 4344, 4345, 4346, 4347, 4348, 4349, 4350, 4351, 4352, 4353, 4354, 4355, 4356, 4357, 4358, 4359, 4360, 4361, 4362, 4363, 4364, 4365, 4366, 4367, 4368, 4369, 4370, 4371, 4372, 4373, 4374, 4375, 4376, 4377, 4378, 4379, 4380, 4381, 4382, 4383, 4384, 4385, 4386, 4387, 4388, 4389, 4390, 4391, 4392, 4393, 4394, 4395, 4396, 4397, 4398, 4399, 4400, 4401, 4402, 4403, 4404, 4405, 4406, 4407, 4408, 4409, 4410, 4411, 4412, 4413, 4414, 4415, 4416, 4417, 4418, 4419, 4420, 4421, 4422, 4423, 4424, 4425, 4426, 4427, 4428, 4429, 4430, 4431, 4432, 4433, 4434, 4435, 4436, 4437, 4438, 4439, 4440, 4441, 4442, 4443, 4444, 4445, 4446, 4447, 4448, 4449, 4450, 4451, 4452, 4453, 4454, 4455, 4456, 4457, 4458, 4459, 4460, 4461, 4462, 4463, 4464, 4465, 4466, 4467, 4468, 4469, 4470, 4471, 4472, 4473, 4474, 4475, 4476, 4477, 4478, 4479, 4480, 4481, 4482, 4483, 4484, 4485, 4486, 4487, 4488, 4489, 4490, 4491, 4492, 4493, 4494, 4495, 4496, 4497, 4498, 4499, 4500, 4501, 4502, 4503, 4504, 4505, 4506, 4507, 4508, 4509, 4510, 4511, 4512, 4513, 4514, 4515, 4516, 4517, 4518, 4519, 4520, 4521, 4522, 4523, 4524, 4525, 4526, 4527, 4528, 4529, 4530, 4531, 4532, 4533, 4534, 4535, 4536, 4537, 4538, 4539, 4540, 4541, 4542, 4543, 4544, 4545, 4546, 4547, 4548, 4549, 4550, 4551, 4552, 4553, 4554, 4555, 4556, 4557, 4558, 4559, 4560, 4561, 4562, 4563, 4564, 4565, 4566, 4567, 4568, 4569, 4570, 4571, 4572, 4573, 4574, 4575, 4576, 4577, 4578, 4579, 4580, 4581, 4582, 4583, 4584, 4585, 4586, 4587, 4588, 4589, 4590, 4591, 4592, 4593, 4594, 4595, 4596, 4597, 4598, 4599, 4600, 4601, 4602, 4603, 4604, 4605, 4606, 4607, 4608, 4609, 4610, 4611, 4612, 4613, 4614, 4615, 4616, 4617, 4618, 4619, 4620, 4621, 4622, 4623, 4624, 4625, 4626, 4627, 4628, 4629, 4630, 4631, 4632, 4633, 4634, 4635, 4636, 4637, 4638, 4639, 4640, 4641, 4642, 4643, 4644, 4645, 4646, 4647, 4648, 4649, 4650, 4651, 4652, 4653, 4654, 4655, 4656, 4657, 4658, 4659, 4660, 4661, 4662, 4663, 4664, 4665, 4666, 4667, 4668, 4669, 4670, 4671, 4672, 4673, 4674, 4675, 4676, 4677, 4678, 4679, 4680, 4681, 4682, 4683, 4684, 4685, 4686, 4687, 4688, 4689, 4690, 4691, 4692, 4693, 4694, 4695, 4696, 4697, 4698, 4699, 4700, 4701, 4702, 4703, 4704, 4705, 4706, 4707, 4708, 4709, 4710, 4711, 4712, 4713, 4714, 4715, 4716, 4717, 4718, 4719, 4720, 4721, 4722, 4723, 4724, 4725, 4726, 4727, 4728, 4729, 4730, 4731, 4732, 4733, 4734, 4735, 4736, 4737, 4738, 4739, 4740, 4741, 4742, 4743, 4744, 4745, 4746, 4747, 4748, 4749, 4750, 4751, 4752, 4753, 4754, 4755, 4756, 4757, 4758, 4759, 4760, 4761, 4762, 4763, 4764, 4765, 4766, 4767, 4768, 4769, 4770, 4771, 4772, 4773, 4774, 4775, 4776, 4777, 4778, 4779, 4780, 4781, 4782, 4783, 4784, 4785, 4786, 4787, 4788, 4789, 4790, 4791, 4792, 4793, 4794, 4795, 4796, 4797, 4798, 4799, 4800, 4801, 4802, 4803, 4804, 4805, 4806, 4807, 4808, 4809, 4810, 4811, 4812, 4813, 4814, 4815, 4816, 4817, 4818, 4819, 4820, 4821, 4822, 4823, 4824, 4825, 4826, 4827, 4828, 4829, 4830, 4831, 4832, 4833, 4834, 4835, 4836, 4837, 4838, 4839, 4840, 4841, 4842, 4843, 4844, 4845, 4846, 4847, 4848, 4849, 4850, 4851, 4852, 4853, 4854, 4855, 4856, 4857, 4858, 4859, 4860, 4861, 4862, 4863, 4864, 4865, 4866, 4867, 4868, 4869, 4870, 4871, 4872, 4873, 4874, 4875, 4876, 4877, 4878, 4879, 4880, 4881, 4882, 4883, 4884, 4885, 4886, 4887, 4888, 4889, 4890, 4891, 4892, 4893, 4894, 4895, 4896, 4897, 4898, 4899, 4900, 4901, 4902, 4903, 4904, 4905, 4906, 4907, 4908, 4909, 4910, 4911, 4912, 4913, 4914, 4915, 4916, 4917, 4918, 4919, 4920, 4921, 4922, 4923, 4924, 4925, 4926, 4927, 4928, 4929, 4930, 4931, 4932, 4933, 4934, 4935, 4936, 4937, 4938, 4939, 4940, 4941, 4942, 4943, 4944, 4945, 4946, 4947, 4948, 4949, 4950, 4951, 4952, 4953, 4954, 4955, 4956, 4957, 4958, 4959, 4960, 4961, 4962, 4963, 4964, 4965, 4966, 4967, 4968, 4969, 4970, 4971, 4972, 4973, 4974, 4975, 4976, 4977, 4978, 4979, 4980, 4981, 4982, 4983, 4984, 4985, 4986, 4987, 4988, 4989, 4990, 4991, 4992, 4993, 4994, 4995, 4996, 4997, 4998, 4999, 5000, 5001, 5002, 5003, 5004, 5005, 5006, 5007, 5008, 5009, 5010, 5011, 5012, 5013, 5014, 5015, 5016, 5017, 5018, 5019, 5020, 5021, 5022, 5023, 5024, 5025, 5026, 5027, 5028, 5029, 5030, 5031, 5032, 5033, 5034, 5035, 5036, 5037, 5038, 5039, 5040, 5041, 5042, 5043, 5044, 5045, 5046, 5047, 5048, 5049, 5050, 5051, 5052, 5053, 5054, 5055, 5056, 5057, 5058, 5059, 5060, 5061, 5062, 5063, 5064, 5065, 5066, 5067, 5068, 5069, 5070, 5071, 5072, 5073, 5074, 5075, 5076, 5077, 5078, 5079, 5080, 5081, 5082, 5083, 5084, 5085, 5086, 5087, 5088, 5089, 5090, 5091, 5092, 5093, 5094, 5095, 5096, 5097, 5098, 5099, 5100, 5101, 5102, 5103, 5104, 5105, 5106, 5107, 5108, 5109, 5110, 5111, 5112, 5113, 5114, 5115, 5116, 5117, 5118, 5119, 5120, 5121, 5122, 5123, 5124, 5125, 5126, 5127, 5128, 5129, 5130, 5131, 5132, 5133, 5134, 5135, 5136, 5137, 5138, 5139, 5140, 5141, 5142, 5143, 5144, 5145, 5146, 5147, 5148, 5149, 5150, 5151, 5152, 5153, 5154, 5155, 5156, 5157, 5158, 5159, 5160, 5161, 5162, 5163, 5164, 5165, 5166, 5167, 5168, 5169, 5170, 5171, 5172, 5173, 5174, 5175, 5176, 5177, 5178, 5179, 5180, 5181, 5182, 5183, 
distro:
88, 88, 88, 88, 88, 88, 88, 88, 88, 88, 88, 88, 88, 88, 88, 88, 88, 88, 88, 88, 88, 88, 88, 88, 88, 88, 88, 88, 88, 88, 88, 88, 317, 298, 298, 317, 317, 298, 298, 317, 317, 298, 298, 317, 317, 298, 298, 317, 317, 298, 298, 317, 317, 298, 298, 317, 317, 298, 298, 317, 317, 298, 298, 317, 317, 298, 298, 317, 317, 298, 298, 317, 317, 298, 298, 317, 314, 295, 295, 314, 314, 295, 295, 314, 314, 295, 295, 314, 314, 295, 295, 314, 314, 295, 295, 314, 314, 295, 295, 314, 314, 295, 295, 314, 314, 295, 295, 314, 314, 295, 295, 314, 314, 295, 295, 314, 314, 295, 295, 314, 314, 295, 295, 314, 314, 295, 295, 314, 314, 295, 295, 314, 314, 295, 295, 314, 314, 295, 295, 314, 314, 295, 295, 314, 314, 295, 295, 314, 314, 295, 295, 314, 314, 295, 295, 314, 314, 295, 295, 314, 314, 295, 295, 314, 314, 295, 295, 314, 314, 295, 295, 314, 314, 295, 295, 314, 314, 295, 295, 314, 314, 295, 295, 314, 314, 295, 295, 314, 314, 295, 295, 314, 314, 295, 295, 314, 314, 295, 295, 314, 314, 295, 295, 314, 314, 295, 295, 314, 314, 295, 295, 314, 314, 295, 295, 314, 314, 295, 295, 314, 314, 295, 295, 314, 314, 295, 295, 314, 314, 295, 295, 314, 314, 295, 295, 314, 314, 295, 295, 314, 314, 295, 295, 314, 314, 295, 295, 314, 314, 295, 295, 314, 314, 295, 295, 314, 314, 295, 295, 314, 314, 295, 295, 314, 314, 295, 295, 314, 314, 295, 295, 314, 314, 295, 295, 314, 314, 295, 295, 314, 314, 295, 295, 314, 314, 295, 295, 314, 314, 295, 295, 314, 314, 295, 295, 314, 314, 295, 295, 314, 314, 295, 295, 314, 314, 295, 295, 314, 314, 295, 295, 314, 314, 295, 295, 314, 314, 295, 295, 314, 314, 295, 295, 314, 314, 295, 295, 314, 314, 295, 295, 314, 314, 295, 295, 314, 314, 295, 295, 314, 314, 295, 295, 314, 314, 295, 295, 314, 314, 295, 295, 314, 314, 295, 295, 314, 314, 295, 295, 314, 314, 295, 295, 314, 314, 295, 295, 314, 314, 295, 295, 314, 314, 295, 295, 314, 314, 295, 295, 314, 314, 295, 295, 314, 314, 295, 295, 314, 314, 295, 295, 314, 314, 295, 295, 314, 314, 295, 295, 314, 314, 295, 295, 314, 314, 295, 295, 314, 314, 295, 295, 314, 314, 295, 295, 314, 314, 295, 295, 314, 314, 295, 295, 314, 314, 295, 295, 314, 314, 295, 295, 314, 314, 295, 295, 314, 314, 295, 295, 314, 314, 295, 295, 314, 314, 295, 295, 314, 314, 295, 295, 314, 314, 295, 295, 314, 314, 295, 295, 314, 314, 295, 295, 314, 314, 295, 295, 314, 88, 88, 88, 88, 314, 295, 295, 314, 314, 295, 295, 314, 314, 295, 295, 314, 314, 295, 295, 314, 314, 295, 295, 314, 314, 295, 295, 314, 314, 295, 295, 314, 314, 295, 295, 314, 314, 295, 295, 314, 314, 295, 295, 314, 314, 295, 295, 314, 314, 295, 295, 314, 314, 295, 295, 314, 314, 295, 295, 314, 314, 295, 295, 314, 314, 295, 295, 314, 314, 295, 295, 314, 314, 295, 295, 314, 314, 295, 295, 314, 314, 295, 295, 314, 314, 295, 295, 314, 314, 295, 295, 314, 314, 295, 295, 314, 314, 295, 295, 314, 314, 295, 295, 314, 314, 295, 295, 314, 314, 295, 295, 314, 314, 295, 295, 314, 314, 295, 295, 314, 314, 295, 295, 314, 314, 295, 295, 314, 314, 295, 295, 314, 314, 295, 295, 314, 314, 295, 295, 314, 314, 295, 295, 314, 314, 295, 295, 314, 314, 295, 295, 314, 314, 295, 295, 314, 314, 295, 295, 314, 314, 295, 295, 314, 314, 295, 295, 314, 314, 295, 295, 314, 314, 295, 295, 314, 314, 314, 295, 314, 314, 314, 295, 314, 314, 314, 295, 314, 314, 314, 295, 314, 314, 314, 295, 314, 314, 314, 295, 314, 314, 295, 295, 314, 314, 314, 295, 314, 314, 314, 295, 314, 314, 314, 295, 314, 314, 314, 295, 314, 314, 314, 295, 314, 314, 314, 295, 314, 314, 314, 295, 314, 314, 295, 295, 314, 314, 295, 295, 314, 314, 295, 295, 314, 314, 295, 295, 314, 314, 295, 295, 314, 314, 295, 295, 314, 314, 295, 295, 314, 314, 295, 295, 314, 314, 295, 295, 314, 314, 295, 295, 314, 314, 295, 295, 314, 314, 295, 295, 314, 88, 88, 88, 88, 88, 88, 88, 88, 314, 295, 295, 314, 314, 295, 295, 314, 314, 295, 295, 314, 314, 295, 295, 314, 314, 295, 295, 314, 314, 295, 295, 314, 314, 295, 295, 314, 314, 314, 295, 314, 314, 88, 314, 314, 314, 314, 295, 314, 314, 314, 295, 314, 314, 295, 295, 314, 314, 295, 295, 314, 314, 295, 295, 314, 314, 295, 295, 314, 314, 295, 295, 314, 314, 295, 295, 314, 314, 295, 295, 314, 314, 295, 295, 314, 314, 295, 295, 314, 314, 295, 295, 314, 314, 295, 295, 314, 314, 295, 295, 314, 314, 295, 295, 314, 314, 295, 295, 314, 314, 295, 295, 314, 314, 295, 295, 314, 314, 295, 295, 314, 314, 88, 314, 314, 314, 88, 314, 314, 314, 88, 314, 314, 314, 88, 314, 314, 314, 314, 295, 314, 314, 314, 295, 314, 314, 314, 295, 314, 314, 88, 314, 314, 314, 88, 314, 314, 314, 88, 314, 314, 314, 88, 314, 314, 314, 88, 314, 314, 314, 88, 314, 314, 314, 88, 314, 314, 314, 295, 295, 314, 314, 295, 295, 314, 314, 295, 295, 314, 314, 295, 295, 314, 314, 295, 295, 314, 314, 295, 295, 314, 314, 295, 295, 314, 314, 295, 295, 314, 314, 295, 295, 314, 314, 295, 295, 314, 314, 295, 295, 314, 88, 88, 88, 88, 88, 88, 88, 88, 314, 295, 295, 314, 314, 295, 295, 314, 314, 295, 295, 314, 314, 295, 295, 314, 314, 295, 295, 314, 314, 295, 295, 314, 314, 295, 295, 314, 314, 295, 295, 314, 314, 88, 314, 314, 314, 88, 314, 314, 314, 88, 314, 314, 314, 88, 314, 314, 314, 88, 314, 314, 314, 88, 314, 314, 314, 88, 314, 314, 314, 88, 314, 314, 314, 88, 314, 314, 314, 88, 314, 314, 314, 88, 314, 314, 314, 88, 314, 314, 314, 88, 314, 314, 314, 88, 314, 314, 314, 295, 295, 314, 314, 295, 295, 314, 314, 295, 295, 314, 314, 295, 295, 314, 314, 295, 295, 314, 314, 295, 295, 314, 314, 295, 295, 314, 314, 295, 295, 314, 314, 295, 295, 314, 314, 295, 295, 314, 314, 295, 295, 314, 314, 295, 295, 314, 314, 295, 295, 314, 314, 295, 295, 314, 314, 295, 295, 314, 314, 295, 295, 314, 314, 295, 295, 314, 314, 295, 295, 314, 314, 295, 295, 314, 314, 295, 295, 314, 314, 295, 295, 314, 314, 295, 295, 314, 314, 295, 295, 314, 314, 295, 295, 314, 314, 295, 295, 314, 314, 295, 295, 314, 314, 295, 295, 314, 314, 295, 295, 314, 314, 314, 295, 314, 314, 314, 295, 314, 314, 314, 295, 314, 314, 314, 295, 314, 314, 314, 295, 314, 314, 295, 295, 314, 314, 295, 295, 314, 314, 88, 314, 314, 314, 88, 314, 314, 314, 88, 314, 314, 314, 88, 314, 314, 314, 88, 314, 314, 314, 88, 314, 314, 314, 88, 314, 314, 314, 88, 314, 314, 314, 88, 314, 314, 314, 88, 314, 314, 314, 88, 314, 314, 314, 88, 314, 314, 314, 88, 314, 314, 314, 88, 314, 314, 314, 295, 295, 314, 314, 295, 295, 314, 314, 295, 295, 314, 314, 295, 295, 314, 314, 314, 295, 314, 314, 314, 295, 314, 314, 314, 295, 314, 314, 295, 295, 314, 314, 295, 295, 314, 314, 295, 295, 314, 314, 295, 295, 314, 314, 295, 295, 314, 314, 295, 295, 314, 314, 295, 295, 314, 314, 295, 295, 314, 314, 295, 295, 314, 314, 295, 295, 314, 314, 295, 295, 314, 314, 295, 295, 314, 314, 295, 295, 314, 314, 295, 295, 314, 314, 295, 295, 314, 314, 295, 295, 314, 314, 295, 295, 314, 314, 295, 295, 314, 314, 295, 295, 314, 314, 295, 295, 314, 314, 295, 295, 314, 314, 314, 314, 314, 314, 314, 295, 314, 314, 314, 295, 314, 314, 314, 295, 314, 314, 314, 295, 314, 314, 295, 295, 314, 314, 295, 295, 314, 314, 88, 314, 314, 314, 88, 314, 314, 314, 88, 314, 314, 314, 88, 314, 314, 314, 88, 314, 314, 314, 88, 314, 314, 314, 88, 314, 314, 314, 88, 314, 314, 314, 88, 314, 314, 314, 88, 314, 314, 314, 88, 314, 314, 314, 88, 314, 314, 314, 88, 314, 314, 314, 88, 314, 314, 314, 88, 314, 314, 314, 88, 314, 314, 314, 88, 314, 314, 314, 88, 314, 314, 314, 88, 314, 314, 314, 88, 314, 314, 314, 88, 314, 314, 314, 295, 295, 314, 314, 295, 295, 314, 314, 295, 295, 314, 314, 295, 295, 314, 314, 295, 295, 314, 314, 314, 295, 314, 314, 314, 295, 314, 314, 295, 295, 314, 88, 88, 88, 88, 314, 295, 295, 314, 314, 295, 295, 314, 314, 295, 295, 314, 314, 295, 295, 314, 314, 295, 295, 314, 314, 295, 295, 314, 314, 295, 295, 314, 314, 295, 295, 314, 314, 295, 295, 314, 314, 295, 295, 314, 314, 295, 295, 314, 314, 295, 295, 314, 314, 88, 314, 314, 314, 88, 314, 314, 314, 314, 295, 314, 314, 314, 295, 314, 314, 314, 295, 314, 314, 314, 295, 314, 314, 295, 295, 314, 314, 88, 314, 314, 314, 88, 314, 314, 314, 88, 314, 314, 314, 88, 314, 314, 314, 88, 314, 314, 314, 88, 314, 314, 314, 88, 314, 314, 314, 295, 295, 314, 314, 88, 314, 314, 314, 88, 314, 314, 314, 88, 314, 314, 314, 88, 314, 314, 314, 88, 314, 314, 314, 88, 314, 314, 314, 295, 295, 314, 314, 295, 295, 314, 314, 295, 295, 314, 314, 295, 295, 314, 314, 295, 295, 314, 314, 295, 295, 314, 314, 295, 295, 314, 314, 88, 314, 314, 314, 295, 295, 314, 314, 295, 295, 314, 314, 295, 295, 314, 314, 295, 295, 314, 314, 295, 295, 314, 314, 314, 295, 314, 314, 88, 314, 314, 314, 88, 314, 314, 314, 88, 314, 314, 314, 88, 314, 314, 314, 295, 295, 314, 314, 295, 295, 314, 314, 295, 295, 314, 314, 295, 295, 314, 314, 295, 295, 314, 314, 88, 314, 314, 314, 88, 314, 314, 314, 88, 314, 314, 314, 88, 314, 314, 314, 88, 314, 314, 314, 88, 314, 314, 314, 314, 295, 314, 314, 314, 295, 314, 314, 295, 295, 314, 314, 295, 295, 314, 314, 295, 295, 314, 314, 295, 295, 314, 314, 295, 295, 314, 314, 88, 314, 314, 314, 88, 314, 314, 314, 88, 314, 314, 314, 88, 314, 314, 314, 88, 314, 314, 314, 88, 314, 314, 314, 295, 295, 314, 314, 295, 295, 314, 314, 295, 295, 314, 314, 295, 295, 314, 314, 295, 295, 314, 314, 295, 295, 314, 314, 295, 295, 314, 314, 88, 314, 314, 314, 88, 314, 314, 314, 88, 314, 314, 314, 88, 314, 314, 314, 88, 314, 314, 314, 88, 314, 314, 314, 88, 314, 314, 314, 88, 314, 314, 314, 88, 314, 314, 314, 88, 314, 314, 314, 88, 314, 314, 314, 88, 314, 314, 314, 88, 314, 314, 314, 88, 314, 314, 314, 88, 314, 314, 314, 88, 314, 314, 314, 88, 314, 314, 314, 88, 314, 314, 314, 88, 314, 314, 314, 88, 314, 314, 314, 88, 314, 314, 314, 295, 295, 314, 314, 295, 295, 314, 314, 295, 295, 314, 314, 314, 295, 314, 314, 314, 295, 314, 314, 314, 295, 314, 314, 88, 314, 314, 314, 295, 295, 314, 314, 295, 295, 314, 314, 295, 295, 314, 314, 295, 295, 314, 314, 295, 295, 314, 314, 295, 295, 314, 314, 295, 295, 314, 314, 295, 295, 314, 314, 295, 295, 314, 314, 295, 295, 314, 314, 295, 295, 314, 314, 295, 295, 314, 314, 295, 295, 314, 314, 295, 295, 314, 314, 88, 314, 314, 314, 88, 314, 314, 314, 88, 314, 314, 314, 88, 314, 314, 314, 88, 314, 314, 314, 88, 314, 314, 314, 88, 314, 314, 314, 88, 314, 314, 314, 88, 314, 314, 314, 88, 314, 314, 314, 88, 314, 314, 314, 88, 314, 314, 314, 88, 314, 314, 314, 88, 314, 314, 314, 88, 314, 314, 314, 88, 314, 314, 314, 88, 314, 314, 314, 88, 314, 314, 314, 88, 314, 314, 314, 88, 314, 314, 314, 88, 314, 314, 314, 88, 314, 314, 314, 88, 314, 314, 314, 88, 314, 314, 314, 88, 314, 314, 314, 88, 314, 314, 314, 88, 314, 314, 314, 88, 314, 314, 314, 295, 295, 314, 314, 295, 295, 314, 314, 314, 295, 314, 314, 314, 295, 314, 314, 88, 314, 314, 314, 88, 314, 314, 314, 88, 314, 314, 314, 295, 295, 314, 314, 295, 295, 314, 314, 295, 295, 314, 314, 295, 295, 314, 314, 295, 295, 314, 314, 295, 295, 314, 314, 295, 295, 314, 314, 295, 295, 314, 314, 295, 295, 314, 314, 295, 295, 314, 314, 295, 295, 314, 314, 295, 295, 314, 314, 295, 295, 314, 314, 295, 295, 314, 314, 88, 314, 314, 314, 88, 314, 314, 314, 314, 295, 314, 314, 314, 295, 314, 314, 314, 295, 314, 314, 295, 295, 314, 314, 295, 295, 314, 314, 88, 314, 314, 314, 88, 314, 314, 314, 88, 314, 314, 314, 88, 314, 314, 314, 88, 314, 314, 314, 88, 314, 314, 314, 88, 314, 314, 314, 88, 314, 314, 314, 88, 314, 314, 314, 88, 314, 314, 314, 88, 314, 314, 314, 88, 314, 314, 314, 88, 314, 314, 314, 295, 295, 314, 314, 88, 314, 314, 314, 88, 314, 314, 314, 88, 314, 314, 314, 88, 314, 314, 314, 88, 314, 314, 314, 88, 314, 314, 314, 88, 314, 314, 314, 88, 314, 314, 314, 88, 314, 314, 314, 88, 314, 314, 314, 88, 314, 314, 314, 88, 314, 314, 314, 88, 314, 314, 314, 88, 314, 314, 314, 295, 295, 314, 314, 295, 295, 314, 314, 295, 295, 314, 314, 314, 295, 314, 314, 314, 295, 314, 314, 314, 295, 314, 314, 314, 295, 314, 314, 295, 295, 314, 314, 295, 295, 314, 314, 295, 295, 314, 314, 295, 295, 314, 88, 88, 88, 88, 88, 88, 88, 88, 314, 295, 295, 314, 314, 295, 295, 314, 314, 295, 295, 314, 314, 295, 295, 314, 314, 295, 295, 314, 314, 295, 295, 314, 314, 295, 295, 314, 88, 88, 88, 88, 314, 88, 314, 314, 314, 88, 314, 314, 314, 88, 314, 314, 314, 88, 314, 314, 314, 88, 314, 314, 314, 88, 314, 314, 314, 88, 314, 314, 314, 295, 295, 314, 314, 295, 295, 314, 314, 295, 295, 314, 314, 295, 295, 314, 314, 295, 295, 314, 314, 295, 295, 314, 314, 295, 295, 314, 314, 88, 314, 314, 314, 314, 295, 314, 314, 314, 295, 314, 314, 314, 295, 314, 314, 295, 295, 314, 314, 295, 295, 314, 314, 295, 295, 314, 314, 88, 314, 314, 314, 88, 314, 314, 314, 88, 314, 314, 314, 88, 314, 314, 314, 88, 314, 314, 314, 88, 314, 314, 314, 88, 314, 314, 314, 88, 314, 314, 314, 88, 314, 314, 314, 88, 314, 314, 314, 88, 314, 314, 314, 88, 314, 314, 314, 88, 314, 314, 314, 88, 314, 314, 314, 88, 314, 314, 314, 88, 314, 314, 314, 88, 314, 314, 314, 88, 314, 314, 314, 88, 314, 314, 314, 88, 314, 314, 314, 88, 314, 314, 314, 295, 295, 314, 314, 295, 295, 314, 314, 295, 295, 314, 314, 314, 295, 314, 314, 314, 295, 314, 314, 314, 295, 314, 314, 314, 295, 314, 88, 88, 88, 88, 314, 295, 295, 314, 314, 295, 295, 314, 314, 295, 295, 314, 314, 295, 295, 314, 314, 295, 295, 314, 314, 295, 295, 314, 314, 295, 295, 314, 314, 295, 295, 314, 314, 295, 295, 314, 314, 295, 295, 314, 314, 295, 295, 314, 314, 295, 295, 314, 314, 295, 295, 314, 314, 88, 314, 314, 314, 88, 314, 314, 314, 314, 295, 314, 314, 314, 295, 314, 314, 314, 295, 314, 314, 295, 295, 314, 314, 295, 295, 314, 314, 88, 314, 314, 314, 88, 314, 314, 314, 88, 314, 314, 314, 88, 314, 314, 314, 88, 314, 314, 314, 88, 314, 314, 314, 88, 314, 314, 314, 295, 295, 314, 314, 295, 295, 314, 314, 295, 295, 314, 314, 295, 295, 314, 314, 295, 295, 314, 88, 88, 88, 88, 88, 88, 88, 88, 314, 295, 295, 314, 314, 295, 295, 314, 314, 295, 295, 314, 314, 295, 295, 314, 314, 295, 295, 314, 314, 295, 295, 314, 314, 295, 295, 314, 314, 88, 314, 314, 314, 88, 314, 314, 314, 88, 314, 314, 314, 88, 314, 314, 314, 88, 314, 314, 314, 88, 314, 314, 314, 88, 314, 314, 314, 88, 314, 314, 314, 88, 314, 314, 314, 88, 314, 314, 314, 88, 314, 314, 314, 88, 314, 314, 314, 88, 314, 314, 314, 88, 314, 314, 314, 295, 295, 314, 314, 88, 314, 314, 314, 88, 314, 314, 314, 88, 314, 314, 314, 88, 314, 314, 314, 88, 314, 314, 314, 88, 314, 314, 314, 295, 295, 314, 314, 295, 295, 314, 88, 88, 88, 88, 88, 88, 88, 88, 314, 295, 295, 314, 314, 295, 295, 314, 314, 295, 295, 314, 314, 314, 295, 314, 314, 295, 295, 314, 314, 295, 295, 314, 314, 295, 295, 314, 314, 295, 295, 314, 314, 295, 295, 314, 314, 295, 295, 314, 314, 88, 314, 314, 314, 88, 314, 314, 314, 88, 314, 314, 314, 88, 314, 314, 314, 88, 314, 314, 314, 88, 314, 314, 314, 88, 314, 314, 314, 295, 295, 314, 314, 295, 295, 314, 314, 295, 295, 314, 314, 295, 295, 314, 314, 314, 295, 314, 314, 314, 295, 314, 314, 314, 295, 314, 314, 295, 295, 314, 314, 295, 295, 314, 314, 295, 295, 314, 314, 295, 295, 314, 314, 295, 295, 314, 314, 295, 295, 314, 314, 295, 295, 314, 314, 88, 314, 314, 314, 88, 314, 314, 314, 314, 295, 314, 314, 314, 295, 314, 314, 314, 295, 314, 314, 314, 295, 314, 314, 295, 295, 314, 314, 88, 314, 314, 314, 88, 314, 314, 314, 88, 314, 314, 314, 88, 314, 314, 314, 88, 314, 314, 314, 88, 314, 314, 314, 88, 314, 314, 314, 295, 295, 314, 314, 295, 295, 314, 314, 295, 295, 314, 314, 295, 295, 314, 314, 295, 295, 314, 314, 295, 295, 314, 314, 295, 295, 314, 314, 295, 295, 314, 314, 295, 295, 314, 314, 295, 295, 314, 314, 295, 295, 314, 314, 295, 295, 314, 314, 295, 295, 314, 314, 295, 295, 314, 314, 295, 295, 314, 314, 295, 295, 314, 314, 295, 295, 314, 314, 295, 295, 314, 314, 295, 295, 314, 314, 295, 295, 314, 314, 295, 295, 314, 314, 295, 295, 314, 314, 295, 295, 314, 314, 295, 295, 314, 314, 295, 295, 314, 314, 295, 295, 314, 314, 295, 295, 314, 314, 295, 295, 314, 314, 88, 314, 314, 314, 88, 314, 314, 314, 314, 295, 314, 314, 314, 295, 314, 314, 314, 295, 314, 314, 314, 295, 314, 314, 314, 295, 314, 314, 88, 314, 314, 314, 88, 314, 314, 314, 88, 314, 314, 314, 314, 295, 314, 314, 314, 295, 314, 314, 314, 295, 314, 314, 314, 295, 314, 314, 88, 314, 314, 314, 88, 314, 314, 314, 88, 314, 314, 314, 88, 314, 314, 314, 88, 314, 314, 314, 88, 314, 314, 314, 88, 314, 314, 314, 314, 295, 314, 314, 314, 295, 314, 314, 314, 295, 314, 314, 314, 295, 314, 314, 314, 295, 314, 314, 314, 295, 314, 314, 88, 314, 314, 314, 295, 295, 314, 314, 295, 295, 314, 314, 295, 295, 314, 88, 88, 88, 88, 88, 88, 88, 88, 314, 295, 295, 314, 314, 295, 295, 314, 314, 295, 295, 314, 314, 295, 295, 314, 314, 295, 295, 314, 314, 295, 295, 314, 314, 295, 295, 314, 314, 295, 295, 314, 314, 295, 295, 314, 314, 88, 314, 314, 314, 88, 314, 314, 314, 88, 314, 314, 314, 88, 314, 314, 314, 88, 314, 314, 314, 88, 314, 314, 314, 88, 314, 314, 314, 295, 295, 314, 314, 295, 295, 314, 314, 295, 295, 314, 314, 295, 295, 314, 314, 295, 295, 314, 314, 314, 295, 314, 314, 314, 295, 314, 314, 295, 295, 314, 314, 295, 295, 314, 314, 295, 295, 314, 314, 295, 295, 314, 314, 295, 295, 314, 314, 295, 295, 314, 314, 295, 295, 314, 314, 295, 295, 314, 314, 295, 295, 314, 314, 295, 295, 314, 314, 295, 295, 314, 314, 295, 295, 314, 314, 295, 295, 314, 314, 295, 295, 314, 314, 295, 295, 314, 314, 295, 295, 314, 314, 295, 295, 314, 314, 295, 295, 314, 314, 295, 295, 314, 314, 295, 295, 314, 314, 295, 295, 314, 314, 295, 295, 314, 314, 295, 295, 314, 314, 295, 295, 314, 314, 295, 295, 314, 314, 295, 295, 314, 314, 295, 295, 314, 314, 295, 295, 314, 314, 295, 295, 314, 314, 295, 295, 314, 314, 295, 295, 314, 314, 295, 295, 314, 314, 295, 295, 314, 314, 295, 295, 314, 314, 295, 295, 314, 314, 314, 295, 314, 314, 314, 295, 314, 314, 314, 295, 314, 314, 314, 295, 314, 314, 314, 295, 314, 314, 314, 295, 314, 314, 314, 295, 314, 314, 295, 295, 314, 314, 295, 295, 314, 314, 295, 295, 314, 314, 295, 295, 314, 314, 295, 295, 314, 314, 314, 295, 314, 314, 314, 295, 314, 314, 295, 295, 314, 314, 295, 295, 314, 314, 295, 295, 314, 314, 295, 295, 314, 314, 295, 295, 314, 314, 295, 295, 314, 314, 295, 295, 314, 314, 295, 295, 314, 314, 295, 295, 314, 314, 295, 295, 314, 314, 295, 295, 314, 314, 295, 295, 314, 314, 295, 295, 314, 314, 295, 295, 314, 314, 295, 295, 314, 314, 295, 295, 314, 314, 295, 295, 314, 314, 295, 295, 314, 314, 295, 295, 314, 314, 295, 295, 314, 314, 295, 295, 314, 314, 295, 295, 314, 314, 295, 295, 314, 314, 295, 295, 314, 314, 295, 295, 314, 314, 295, 295, 314, 314, 295, 295, 314, 314, 295, 295, 314, 314, 295, 295, 314, 314, 295, 295, 314, 314, 295, 295, 314, 314, 295, 295, 314, 314, 295, 295, 314, 314, 295, 295, 314, 314, 295, 295, 314, 314, 295, 295, 314, 314, 295, 295, 314, 314, 295, 295, 314, 314, 295, 295, 314, 314, 295, 295, 314, 314, 295, 295, 314, 314, 295, 295, 314, 314, 295, 295, 314, 314, 295, 295, 314, 314, 295, 295, 314, 314, 295, 295, 314, 314, 295, 295, 314, 314, 295, 295, 314, 314, 295, 295, 314, 314, 295, 295, 314, 314, 295, 295, 314, 314, 295, 295, 314, 314, 295, 295, 314, 314, 295, 295, 314, 314, 295, 295, 314, 314, 295, 295, 314, 314, 295, 295, 314, 314, 295, 295, 314, 314, 295, 295, 314, 314, 295, 295, 314, 314, 295, 295, 314, 314, 295, 295, 314, 314, 295, 295, 314, 314, 295, 295, 314, 314, 295, 295, 314, 314, 295, 295, 314, 314, 295, 295, 314, 314, 295, 295, 314, 314, 295, 295, 314, 314, 295, 295, 314, 314, 295, 295, 314, 314, 295, 295, 314, 314, 295, 295, 314, 314, 295, 295, 314, 314, 295, 295, 314, 314, 295, 295, 314, 314, 295, 295, 314, 314, 295, 295, 314, 314, 295, 295, 314, 314, 295, 295, 314, 314, 295, 295, 314, 314, 295, 295, 314, 314, 295, 295, 314, 314, 295, 295, 314, 314, 295, 295, 314, 314, 295, 295, 314, 314, 295, 295, 314, 314, 295, 295, 314, 314, 295, 295, 314, 314, 295, 295, 314, 314, 295, 295, 314, 314, 295, 295, 314, 314, 295, 295, 314, 314, 295, 295, 314, 314, 295, 295, 314, 314, 295, 295, 314, 314, 295, 295, 314, 314, 295, 295, 314, 314, 295, 295, 314, 314, 295, 295, 314, 314, 295, 295, 314, 314, 295, 295, 314, 314, 295, 295, 314, 314, 295, 295, 314, 314, 295, 295, 314, 314, 295, 295, 314, 314, 295, 295, 314, 314, 295, 295, 314, 314, 295, 295, 314, 314, 295, 295, 314, 314, 295, 295, 314, 314, 295, 295, 314, 314, 295, 295, 314, 314, 295, 295, 314, 314, 295, 295, 314, 314, 295, 295, 314, 314, 295, 295, 314, 314, 295, 295, 314, 314, 295, 295, 314, 314, 295, 295, 314, 314, 295, 295, 314, 314, 295, 295, 314, 314, 295, 295, 314, 314, 295, 295, 314, 314, 295, 295, 314, 314, 295, 295, 314, 314, 295, 295, 314, 314, 295, 295, 314, 314, 295, 295, 314, 314, 295, 295, 314, 314, 295, 295, 314, 314, 295, 295, 314, 314, 295, 295, 314, 314, 295, 295, 314, 314, 295, 295, 314, 314, 295, 295, 314, 314, 295, 295, 314, 314, 295, 295, 314, 314, 295, 295, 314, 314, 295, 295, 314, 314, 295, 295, 314, 314, 295, 295, 314, 314, 295, 295, 314, 314, 295, 295, 314, 314, 295, 295, 314, 314, 295, 295, 314, 314, 295, 295, 314, 314, 295, 295, 314, 314, 295, 295, 314, 314, 295, 295, 314, 314, 295, 295, 314, 314, 295, 295, 314, 314, 295, 295, 314, 314, 295, 295, 314, 314, 295, 295, 314, 314, 295, 295, 314, 314, 295, 295, 314, 314, 295, 295, 314, 314, 295, 295, 314, 314, 295, 295, 314, 314, 295, 295, 314, 314, 295, 295, 314, 314, 295, 295, 314, 314, 295, 295, 314, 314, 295, 295, 314, 314, 295, 295, 314, 314, 295, 295, 314, 314, 295, 295, 314, 314, 295, 295, 314, 314, 295, 295, 314, 314, 295, 295, 314, 314, 295, 295, 314, 314, 295, 295, 314, 314, 295, 295, 314, 314, 295, 295, 314, 314, 295, 295, 314, 314, 295, 295, 314, 88, 88, 88, 88, 88, 88, 88, 88, 314, 295, 295, 314, 314, 295, 295, 314, 314, 295, 295, 314, 314, 295, 295, 314, 314, 295, 295, 314, 314, 295, 295, 314, 314, 295, 295, 314, 314, 295, 295, 314, 314, 295, 295, 314, 314, 295, 295, 314, 314, 295, 295, 314, 314, 295, 295, 314, 314, 295, 295, 314, 314, 295, 295, 314, 314, 295, 295, 314, 314, 295, 295, 314, 314, 295, 295, 314, 314, 295, 295, 314, 314, 295, 295, 314, 314, 295, 295, 314, 314, 295, 295, 314, 314, 295, 295, 314, 314, 295, 295, 314, 314, 295, 295, 314, 314, 295, 295, 314, 314, 295, 295, 314, 314, 295, 295, 314, 314, 295, 295, 314, 314, 295, 295, 314, 314, 295, 295, 314, 314, 295, 295, 314, 314, 295, 295, 314, 314, 295, 295, 314, 314, 295, 295, 314, 314, 295, 295, 314, 314, 295, 295, 314, 314, 295, 295, 314, 314, 295, 295, 314, 314, 295, 295, 314, 314, 295, 295, 314, 314, 295, 295, 314, 314, 295, 295, 314, 314, 295, 295, 314, 88, 88, 88, 88, 88, 88, 88, 88, 314, 295, 295, 314, 314, 295, 295, 314, 314, 295, 295, 314, 314, 295, 295, 314, 314, 295, 295, 314, 314, 295, 295, 314, 314, 295, 295, 314, 314, 295, 295, 314, 314, 295, 295, 314, 314, 295, 295, 314, 314, 295, 295, 314, 314, 295, 295, 314, 314, 295, 295, 314, 314, 295, 295, 314, 314, 295, 295, 314, 314, 295, 295, 314, 314, 295, 295, 314, 314, 295, 295, 314, 314, 295, 295, 314, 314, 295, 295, 314, 314, 295, 295, 314, 314, 295, 295, 314, 314, 295, 295, 314, 314, 295, 295, 314, 314, 295, 295, 314, 314, 295, 295, 314, 314, 295, 295, 314, 314, 295, 295, 314, 314, 295, 295, 314, 314, 295, 295, 314, 314, 295, 295, 314, 314, 295, 295, 314, 314, 295, 295, 314, 314, 295, 295, 314, 314, 295, 295, 314, 314, 295, 295, 314, 314, 295, 295, 314, 314, 295, 295, 314, 314, 295, 295, 314, 314, 295, 295, 314, 314, 295, 295, 314, 314, 295, 295, 314, 314, 295, 295, 314, 314, 295, 295, 314, 314, 295, 295, 314, 314, 295, 295, 314, 314, 295, 295, 314, 314, 295, 295, 314, 314, 295, 295, 314, 314, 295, 295, 314, 314, 295, 295, 314, 314, 295, 295, 314, 314, 295, 295, 314, 314, 295, 295, 314, 314, 295, 295, 314, 314, 295, 295, 314, 314, 295, 295, 314, 314, 295, 295, 314, 314, 295, 295, 314, 314, 295, 295, 314, 314, 295, 295, 314, 314, 295, 295, 314, 314, 295, 295, 314, 88, 88, 88, 88, 314, 295, 295, 314, 314, 295, 295, 314, 314, 295, 295, 314, 314, 295, 295, 314, 314, 295, 295, 314, 314, 295, 295, 314, 314, 295, 295, 314, 314, 295, 295, 314, 314, 295, 295, 314, 88, 88, 88, 88, 88, 88, 88, 88, 314, 295, 295, 314, 314, 295, 295, 314, 314, 295, 295, 314, 314, 295, 295, 314, 314, 295, 295, 314, 314, 295, 295, 314, 314, 295, 295, 314, 314, 295, 295, 314, 314, 295, 295, 314, 314, 295, 295, 314, 314, 295, 295, 314, 314, 295, 295, 314, 314, 295, 295, 314, 314, 295, 295, 314, 314, 295, 295, 314, 314, 295, 295, 314, 314, 295, 295, 314, 314, 295, 295, 314, 314, 295, 295, 314, 314, 295, 295, 314, 314, 295, 295, 314, 314, 295, 295, 314, 314, 295, 295, 314, 314, 295, 295, 314, 314, 295, 295, 314, 314, 295, 295, 314, 314, 295, 295, 314, 314, 295, 295, 314, 314, 295, 295, 314, 314, 295, 295, 314, 314, 295, 295, 314, 314, 295, 295, 314, 314, 295, 295, 314, 314, 295, 295, 314, 314, 295, 295, 314, 314, 295, 295, 314, 314, 295, 295, 314, 314, 295, 295, 314, 314, 295, 295, 314, 314, 295, 295, 314, 314, 295, 295, 314, 88, 88, 88, 88, 88, 88, 88, 88, 314, 295, 295, 314, 314, 295, 295, 314, 314, 295, 295, 314, 314, 295, 295, 314, 314, 295, 295, 314, 314, 295, 295, 314, 314, 295, 295, 314, 314, 295, 295, 314, 314, 295, 295, 314, 314, 295, 295, 314, 314, 295, 295, 314, 314, 295, 295, 314, 314, 295, 295, 314, 314, 295, 295, 314, 314, 295, 295, 314, 314, 295, 295, 314, 314, 295, 295, 314, 314, 295, 295, 314, 314, 295, 295, 314, 314, 295, 295, 314, 314, 295, 295, 314, 314, 295, 295, 314, 314, 295, 295, 314, 88, 88, 88, 88, 314, 295, 295, 314, 314, 295, 295, 314, 314, 295, 295, 314, 314, 295, 295, 314, 314, 295, 295, 314, 314, 295, 295, 314, 314, 295, 295, 314, 314, 295, 295, 314, 314, 295, 295, 314, 314, 295, 295, 314, 314, 295, 295, 314, 314, 295, 295, 314, 317, 298, 298, 317, 317, 298, 298, 317, 317, 298, 298, 317, 317, 298, 298, 317, 317, 298, 298, 317, 317, 298, 298, 317, 317, 298, 298, 317, 317, 298, 298, 317, 88, 88, 88, 88, 88, 88, 88, 88, 88, 88, 88, 88, 88, 88, 88, 88, 88, 88, 88, 88, 88, 88, 88, 88, 88, 88, 88, 88, 
gpgpu_n_tot_thrd_icount = 662830560
gpgpu_n_tot_w_icount = 20713455
gpgpu_n_icache_hits = 10483973
gpgpu_n_icache_misses = 600488
gpgpu_n_l1dcache_read_hits = 5210250
gpgpu_n_l1dcache_read_misses = 21789750
gpgpu_n_l1dcache_write_accesses = 26154000
gpgpu_n_l1dcache_wirte_misses = 26154000
gpgpu_n_tcache_hits = 0
gpgpu_n_tcache_misses = 0
gpgpu_n_ccache_hits = 143608
gpgpu_n_ccache_misses = 392
gpgpu_n_stall_shd_mem = 476593732
gpgpu_n_mem_read_local = 0
gpgpu_n_mem_write_local = 0
gpgpu_n_mem_read_global = 20094502
gpgpu_n_mem_write_global = 26154000
gpgpu_n_mem_texture = 0
gpgpu_n_mem_const = 14
gpgpu_n_load_insn  = 86400000
gpgpu_n_store_insn = 82080000
gpgpu_n_shmem_insn = 0
gpgpu_n_tex_insn = 0
gpgpu_n_const_mem_insn = 0
gpgpu_n_param_mem_insn = 8640000
gpgpu_n_shmem_bkconflict = 0
gpgpu_n_cache_bkconflict = 0
gpgpu_n_intrawarp_mshr_merge = 0
gpgpu_n_cmem_portconflict = 0
gpgpu_stall_shd_mem[c_mem][bk_conf] = 0
gpgpu_stall_shd_mem[c_mem][mshr_rc] = 0
gpgpu_stall_shd_mem[c_mem][icnt_rc] = 0
gpgpu_stall_shd_mem[t_mem][mshr_rc] = 0
gpgpu_stall_shd_mem[t_mem][icnt_rc] = 0
gpgpu_stall_shd_mem[s_mem][bk_conf] = 0
gpgpu_stall_shd_mem[gl_mem][bk_conf] = 0
gpgpu_stall_shd_mem[gl_mem][coal_stall] = 476593732
gpgpu_stall_shd_mem[g_mem_ld][mshr_rc] = 0
gpgpu_stall_shd_mem[g_mem_ld][icnt_rc] = 0
gpgpu_stall_shd_mem[g_mem_ld][wb_icnt_rc] = 0
gpgpu_stall_shd_mem[g_mem_ld][wb_rsrv_fail] = 0
gpgpu_stall_shd_mem[g_mem_st][mshr_rc] = 0
gpgpu_stall_shd_mem[g_mem_st][icnt_rc] = 0
gpgpu_stall_shd_mem[g_mem_st][wb_icnt_rc] = 0
gpgpu_stall_shd_mem[g_mem_st][wb_rsrv_fail] = 0
gpgpu_stall_shd_mem[l_mem_ld][mshr_rc] = 0
gpgpu_stall_shd_mem[l_mem_ld][icnt_rc] = 0
gpgpu_stall_shd_mem[l_mem_ld][wb_icnt_rc] = 0
gpgpu_stall_shd_mem[l_mem_ld][wb_rsrv_fail] = 0
gpgpu_stall_shd_mem[l_mem_st][mshr_rc] = 0
gpgpu_stall_shd_mem[l_mem_st][icnt_rc] = 0
gpgpu_stall_shd_mem[l_mem_ld][wb_icnt_rc] = 0
gpgpu_stall_shd_mem[l_mem_ld][wb_rsrv_fail] = 0
gpu_reg_bank_conflict_stalls = 0
Warp Occupancy Distribution:
Stall:714446597	W0_Idle:232517623	W0_Scoreboard:3784475	W1:617798	W2:5244	W3:33116	W4:6080	W5:28680	W6:6080	W7:28730	W8:7429	W9:27093	W10:7904	W11:30734	W12:134937	W13:140409	W14:130712	W15:146040	W16:123725	W17:122235	W18:124088	W19:121986	W20:107613	W21:101321	W22:94712	W23:4039576	W24:1340550	W25:90830	W26:72320	W27:74220	W28:72320	W29:62924	W30:63072	W31:3089383	W32:9661594
maxmrqlatency = 1199 
maxdqlatency = 0 
maxmflatency = 1888 
averagemflatency = 371 
max_icnt2mem_latency = 1104 
max_icnt2sh_latency = 34718862 
mrq_lat_table:8685301 	635797 	953283 	2247053 	5270496 	8020443 	7408994 	3414273 	739272 	27388 	17 	0 	0 	0 	0 	0 	0 	0 	0 	0 	0 	0 	0 	0 	0 	0 	0 	0 	0 	0 	0 	0 	
dq_lat_table:0 	0 	0 	0 	0 	0 	0 	0 	0 	0 	0 	0 	0 	0 	0 	0 	0 	0 	0 	0 	0 	0 	0 	0 	0 	0 	0 	0 	0 	0 	0 	0 	
mf_lat_table:0 	0 	0 	0 	0 	0 	46919 	12564637 	25456093 	8139810 	41057 	0 	0 	0 	0 	0 	0 	0 	0 	0 	0 	0 	0 	0 	0 	0 	0 	0 	0 	0 	0 	0 	
icnt2mem_lat_table:8446 	1318362 	1072621 	880596 	1433156 	13436388 	9137383 	11102356 	7889324 	90581 	19 	0 	0 	0 	0 	0 	0 	0 	0 	0 	0 	0 	0 	0 	
icnt2sh_lat_table:0 	4579261 	7058807 	8131714 	324478 	256 	0 	0 	0 	0 	0 	0 	0 	0 	0 	0 	35012 	40840 	164147 	342646 	761723 	1591381 	3200399 	6447697 	
mf_lat_pw_table:12663450 	906705 	0 	0 	0 	0 	0 	1492 	62417 	5527 	0 	0 	0 	0 	0 	0 	0 	0 	0 	0 	0 	0 	0 	0 	0 	0 	0 	0 	0 	0 	0 	0 	
maximum concurrent accesses to same row:
dram[0]:        56        60        50        52        59        64        60        48        48        60        52        50        64        56        56        56 
dram[1]:        56        60        48        52        48        64        60        60        48        64        50        52        64        56        56        56 
dram[2]:        58        69        54        45        46        52        56        47        49        56        52        51        47        60        59        56 
dram[3]:        52        59        58        52        52        64        58        52        50        56        57        53        53        51        52        58 
dram[4]:        44        60        54        68        64        64        64        58        52        64        58        52        56        56        56        60 
maximum service time to same row:
dram[0]:      7670     10555     13005     10583     10622      9303     11224     11053     10614      9483      9030      9880     13790     18270     15808     12098 
dram[1]:      8520     12608     12999     10537     10658      8700     10991      8162     10606      9520     10795      9906      9392     11684      9322     10979 
dram[2]:      8250      8524     13020      8974      8354      7483     11140     11046      8487      7100      8882      8786      6804     10523      9506     11168 
dram[3]:      6157     13118     15240      8388      8710      8557      8636     10042     10050      9545     10008     11030     10482      9420      9540     12086 
dram[4]:      8264     12823     12925     10060     10574      9287      9988     10214     10603      9248      9358     11342     13707     18104     15817     12111 
average row accesses per activate:
dram[0]:  5.740508  6.347936  6.328022  6.454020  6.366941  6.390326  6.382331  6.444679  6.312709  6.368194  6.347491  6.450584  6.364219  6.397056  6.391597  6.465491 
dram[1]:  5.653521  6.053043  6.033818  6.141343  6.063261  6.098869  6.064767  6.132885  6.041904  6.048135  6.060937  6.150259  6.070005  6.076016  6.063418  6.132232 
dram[2]:  4.758080  5.007541  5.028251  5.077371  5.064169  5.047837  5.047898  5.097178  5.008147  4.995153  5.025282  5.073009  5.058735  5.030024  5.078237  5.092822 
dram[3]:  4.745935  5.171415  5.201664  5.298472  5.214017  5.227247  5.232180  5.321715  5.160429  5.178661  5.207297  5.272939  5.231058  5.248161  5.249848  5.321146 
dram[4]:  5.632463  6.382658  6.317741  6.499498  6.360662  6.427404  6.364098  6.523335  6.312667  6.387294  6.327561  6.515470  6.360046  6.461968  6.395404  6.522306 
average row locality = 37402317/6543067 = 5.716328
number of total memory accesses made:
dram[0]:         0         0         0         0         0         0         0         0         0         0         0         0         0         0         0         0 
dram[1]:         0         0         0         0         0         0         0         0         0         0         0         0         0         0         0         0 
dram[2]:         0         0         0         0         0         0         0         0         0         0         0         0         0         0         0         0 
[...]
dram[0]:         0         0         0         0         0         0         0         0         0         0         0         0         0         0         0         0 
dram[1]:         0         0         0         0         0         0         0         0         0         0         0         0         0         0         0         0 
dram[2]:         0         0         0         0         0         0         0         0         0         0         0         0         0         0         0         0 
dram[3]:         0         0         0         0         0         0         0         0         0         0         0         0         0         0         0         0 
dram[4]:         0         0         0         0         0         0         0         0         0         0         0         0         0         0         0         0 
total accesses: 0
min_bank_accesses = 0!
min_chip_accesses = 0!
number of total read accesses:
dram[0]:    440493    423100    425841    425837    428872    426495    426610    425216    426912    425150    428238    425363    429645    426846    429277    425810 
dram[1]:    388785    377966    379648    380522    382518    381242    380142    379697    380367    379751    381794    379711    382883    381317    382590    380240 
dram[2]:    460808    447137    449585    449834    452422    450277    450456    449669    450880    449293    451711    449348    453138    450546    452427    449964 
dram[3]:    511390    489235    492993    492220    495903    492537    493957    492065    494500    491861    495544    491720    496552    492824    496064    492307 
dram[4]:    470656    448363    452316    451172    455656    451731    453315    450881    453732    450839    454791    450819    456422    452284    455897    451335 
total reads: 35328254
bank skew: 511390/377966 = 1.35
chip skew: 7911672/6099173 = 1.30
number of total write accesses:
dram[0]:    480691    478689    480694    480009    482616    481666    480817    479708    479704    479205    482502    479369    481342    481963    483313    481028 
dram[1]:    434595    433079    434439    434174    436562    435812    434552    433826    433514    433616    436168    433517    435073    436099    436985    435136 
dram[2]:    494888    492886    494552    494053    496529    495378    494626    493736    493722    493240    495812    493586    495126    495847    496777    495153 
dram[3]:    535598    533471    535922    534641    537703    536022    535735    534330    534744    533997    537412    533713    536114    536890    538370    535719 
dram[4]:    504888    502840    505358    503726    507329    505404    505247    503464    504208    503175    506859    502988    505993    506095    508114    504929 
total reads: 39217372
bank skew: 538370/433079 = 1.24
chip skew: 8570381/6957147 = 1.23
average mf latency per bank:
dram[0]:        426       434       432       433       432       433       433       435       433       434       432       433       431       432       431       435
dram[1]:        419       425       423       423       422       422       423       425       424       424       422       423       422       422       421       425
dram[2]:        443       450       448       449       447       448       447       450       448       449       447       448       447       448       447       450
dram[3]:        506       518       515       516       515       516       515       518       515       516       513       516       514       515       513       518
dram[4]:        456       467       464       465       463       465       464       467       464       466       463       465       463       464       462       467
maximum mf latency per bank:
dram[0]:       1430      1492      1322      1403      1461      1490      1467      1333      1523      1383      1467      1287      1503      1329      1351      1403
dram[1]:       1509      1449      1407      1501      1475      1803      1428      1399      1648      1415      1350      1462      1342      1598      1451      1648
dram[2]:       1525      1666      1818      1710      1645      1521      1670      1737      1561      1741      1732      1454      1646      1888      1656      1619
dram[3]:       1681      1684      1599      1649      1617      1669      1683      1742      1593      1657      1575      1660      1819      1797      1614      1582
dram[4]:       1550      1628      1551      1568      1500      1529      1622      1576      1460      1468      1705      1467      1615      1574      1524      1581

Number of Memory Banks Accessed per Memory Operation per Warp (from 0):
0	0	0	0	0	0	0	0	0	0	0	0	0	0	0	0	0	0	0	0	0	0	0	0	0	0	0	0	0	0	0	0	0	0	0	0	0	0	0	0	0	0	0	0	0	0	0	0	0	0	0	0	0	0	0	0	0	0	0	0	0	0	0	0	0	0	0	0	0	0	0	0	0	0	0	0	0	0	0	0	
Average # of Memory Banks Accessed per Memory Operation per Warp=-nan

position of mrq chosen
0	0	0	0	0	0	0	0	0	0	0	0	0	0	0	0	

average position of mrq chosen = -nan
gpgpu_l2_write_miss = 0
gpgpu_l2_write_access = 0
gpgpu_l2_read_miss = 0
gpgpu_l2_read_access = 0
Cache L2_bank_000:
MSHR contents

DRAM[0]: 16 bks, busW=4 BL=8 CL=12, tRRD=2 tCCD=6, tRCD=12 tRAS=28 tRP=12 tRC=40
n_cmd=103777659 n_nop=72540448 n_act=2291357 n_pre=2291341 n_req=14533021 n_rd=13679410 n_write=12975103 bw_util=0.5137
n_activity=98473430 dram_eff=0.5414
bk0: 880986a 81361980i bk1: 846200a 80940651i bk2: 851682a 81013360i bk3: 851674a 80346439i bk4: 857744a 80703015i bk5: 852990a 80034367i bk6: 853220a 80022379i bk7: 850432a 79147693i bk8: 853824a 79138874i bk9: 850300a 78038876i bk10: 856476a 77742036i bk11: 850726a 76465547i bk12: 859290a 75996825i bk13: 853692a 73536480i bk14: 858554a 69887370i bk15: 851620a 61349988i 
dram_util_bins: 0 0 0 0 0 0 0 0 0 0
dram_eff_bins: 0 0 0 0 0 0 0 0 0 0
mrqq: max=16 avg=11.0232
Cache L2_bank_001:
MSHR contents

DRAM[1]: 16 bks, busW=4 BL=8 CL=12, tRRD=2 tCCD=6, tRCD=12 tRAS=28 tRP=12 tRC=40
n_cmd=103777659 n_nop=75089745 n_act=2155773 n_pre=2155757 n_req=13056320 n_rd=12198346 n_write=12178038 bw_util=0.4698
n_activity=93077560 dram_eff=0.5238
bk0: 777570a 84116735i bk1: 755932a 83685517i bk2: 759296a 83881690i bk3: 761044a 83222629i bk4: 765036a 83598330i bk5: 762484a 82949802i bk6: 760284a 83014839i bk7: 759394a 82112876i bk8: 760734a 82163660i bk9: 759502a 81082238i bk10: 763588a 80898196i bk11: 759422a 79575203i bk12: 765766a 79051659i bk13: 762634a 76574288i bk14: 765180a 73255223i bk15: 760480a 64743651i 
dram_util_bins: 0 0 0 0 0 0 0 0 0 0
dram_eff_bins: 0 0 0 0 0 0 0 0 0 0
mrqq: max=16 avg=9.65666
Cache L2_bank_002:
MSHR contents
MSHR: tag=0x8b0e6d80, atomic=0 1 entries : 0xa386c200 :  mf: uid=1017021347, sid03:w23, part=2, addr=0x8b0e6de0, load , size=32, unknown  status = IN_PARTITION_DRAM (69185107), 

DRAM[2]: 16 bks, busW=4 BL=8 CL=12, tRRD=2 tCCD=6, tRCD=12 tRAS=28 tRP=12 tRC=40
n_cmd=103777659 n_nop=70463408 n_act=3010235 n_pre=3010219 n_req=15133406 n_rd=14434988 n_write=12858809 bw_util=0.526
n_activity=99145916 dram_eff=0.5506
bk0: 921616a 78974244i bk1: 894274a 78553856i bk2: 899170a 78767809i bk3: 899668a 77997418i bk4: 904844a 78494698i bk5: 900554a 77740164i bk6: 900912a 77869797i bk7: 899338a 76770883i bk8: 901760a 76956415i bk9: 898586a 75754559i bk10: 903420a 75503042i bk11: 898696a 73994443i bk12: 906276a 73554053i bk13: 901092a 70625626i bk14: 904854a 66250038i bk15: 899928a 55151216i 
dram_util_bins: 0 0 0 0 0 0 0 0 0 0
dram_eff_bins: 0 0 0 0 0 0 0 0 0 0
mrqq: max=16 avg=11.7633
Cache L2_bank_003:
MSHR contents

DRAM[3]: 16 bks, busW=4 BL=8 CL=12, tRRD=2 tCCD=6, tRCD=12 tRAS=28 tRP=12 tRC=40
n_cmd=103777659 n_nop=67593077 n_act=3166394 n_pre=3166378 n_req=16482053 n_rd=15823344 n_write=14028466 bw_util=0.5753
n_activity=102930703 dram_eff=0.58
bk0: 1022780a 75397189i bk1: 978470a 75271700i bk2: 985986a 75377256i bk3: 984440a 74576126i bk4: 991806a 75073969i bk5: 985074a 74298613i bk6: 987914a 74350107i bk7: 984130a 73259892i bk8: 989000a 73401025i bk9: 983722a 72078819i bk10: 991088a 71738632i bk11: 983440a 70245437i bk12: 993104a 69746585i bk13: 985648a 66713584i bk14: 992128a 61933227i bk15: 984614a 51105182i 
dram_util_bins: 0 0 0 0 0 0 0 0 0 0
dram_eff_bins: 0 0 0 0 0 0 0 0 0 0
mrqq: max=16 avg=13.3873
Cache L2_bank_004:
MSHR contents

DRAM[4]: 16 bks, busW=4 BL=8 CL=12, tRRD=2 tCCD=6, tRCD=12 tRAS=28 tRP=12 tRC=40
n_cmd=103777659 n_nop=70365455 n_act=2411470 n_pre=2411454 n_req=15340826 n_rd=14520418 n_write=14068862 bw_util=0.551
n_activity=101182178 dram_eff=0.5651
bk0: 941312a 78757958i bk1: 896726a 78675361i bk2: 904632a 78748041i bk3: 902344a 78025593i bk4: 911312a 78351720i bk5: 903462a 77640288i bk6: 906630a 77580702i bk7: 901762a 76629591i bk8: 907464a 76590128i bk9: 901678a 75434067i bk10: 909582a 75123712i bk11: 901638a 73861485i bk12: 912844a 73387878i bk13: 904568a 70782817i bk14: 911794a 66825954i bk15: 902670a 58457345i 
dram_util_bins: 0 0 0 0 0 0 0 0 0 0
dram_eff_bins: 0 0 0 0 0 0 0 0 0 0
mrqq: max=16 avg=12.2578
Cache L2_bank_000:	Size = 131072 B (64 Set x 16-way x 128 byte line)
		Access = 18336074, Miss = 6839705 (0.373), PendingHit = 30788 (0.00168)
Cache L2_bank_001:	Size = 131072 B (64 Set x 16-way x 128 byte line)
		Access = 16608346, Miss = 6099173 (0.367), PendingHit = 26757 (0.00161)
Cache L2_bank_002:	Size = 131072 B (64 Set x 16-way x 128 byte line)
		Access = 17957864, Miss = 7217495 (0.402), PendingHit = 31315 (0.00174)
Cache L2_bank_003:	Size = 131072 B (64 Set x 16-way x 128 byte line)
		Access = 20139024, Miss = 7911672 (0.393), PendingHit = 36429 (0.00181)
Cache L2_bank_004:	Size = 131072 B (64 Set x 16-way x 128 byte line)
		Access = 19671895, Miss = 7260209 (0.369), PendingHit = 34160 (0.00174)
L2 Cache Total Miss Rate = 0.381

icnt_total_pkts_mem_to_simt=254333987
icnt_total_pkts_simt_to_mem=234337203

LD_mem_lat_dist  0 0 0 0 0 0 0 0 0 0 0 0 0 0 0 0 0 0 0 0 0 0 0 0 0 0 0
ST_mem_lat_dist  0 0 0 0 0 0 0 0 0 0 0 0 0 0 0 0 0 0 0 0 0 0 0 0 0 0 0
Traffic 0 Stat
%=================================
% Average latency = 149.624
% Accepted packets = 0 at node 0 (avg = 0.0738946)
lat(3) = 149.624;
thru(3,:) = [ 0 0 0 0 0 0 0 0 0 0 0 0 0 0 0.340047 0.315996 0.31534 0.361997 0.366194 0 0 0 0 ];
% latency change    = 0.936605
% throughput change = 0.0780875
Traffic 1 Stat
%=================================
% Average latency = 9.53726
% Accepted packets = 0 at node 14 (avg = 0.0801691)
lat(4) = 9.53726;
thru(4,:) = [ 0.131096 0.131745 0.13142 0.131624 0.130566 0.132688 0.130736 0.131601 0.132468 0.132723 0.131546 0.133029 0.130725 0.131923 0 0 0 0 0 0 0 0 0 ];
% latency change    = 14.6884
% throughput change = 0.0782658
----------------------------Interconnect-DETAILS---------------------------------=======Traffic[0]class0 ======
Traffic[0]class0Overall average latency = 150.178 (2 samples)
Traffic[0]class0Overall average accepted rate = 0.0736337 (2 samples)
Traffic[0]class0Overall min accepted rate = 0 (2 samples)
traffic_manager/latency_stat_0_freq = [ 0 1280777 285565 205787 189283 186486 150565 123537 113392 103192 95913 85595 77564 71668 67749 64894 671142 885704 648528 635126 569889 567174 521772 598769 610804 600662 660713 666885 660445 642827 633611 620692 598188 602877 582505 567023 552584 536874 517027 495405 477224 456557 434943 420464 400559 384896 364061 348838 331736 317305 301377 286903 271932 259383 245874 235098 223017 212347 200231 192788 182119 173398 164430 157122 148235 142819 134677 130514 123112 119707 113252 110033 105009 102973 98022 96194 92925 91377 88235 87411 83575 84357 81164 80897 78812 79056 77032 77775 76530 76921 75509 77059 76004 76970 75824 77289 76197 77886 77736 79325 78219 79970 79022 81199 80832 83239 82027 83728 82978 85119 84056 86052 85284 86749 86182 87589 87447 88294 87705 89150 88170 88786 87848 88748 88008 88363 88090 87905 87069 87151 86352 86503 85257 86093 84620 84236 83064 82656 81591 81533 79874 79312 77752 77285 76202 76138 73911 73199 71300 71132 68950 68375 66539 66236 64693 64049 62093 61478 60253 59495 57559 57136 55789 55321 53446 53440 51322 51224 49568 49045 47595 47259 45414 45507 43868 43709 42581 42111 40568 40658 39019 39019 37559 37789 36516 36740 35199 35210 33988 34089 33086 33441 32501 32438 31686 32104 30411 30913 29704 30272 29070 29473 28830 29197 28360 28407 28078 28278 27270 27839 27207 27364 26922 27207 26587 27437 26342 26871 26087 26594 25872 26517 25778 26328 25838 26258 25380 26433 25597 25991 25612 26718 25823 26607 25492 26260 25431 26478 25588 26299 25402 26291 25670 26769 26107 26754 25874 26789 26150 27223 26525 27266 26553 27407 26528 27239 26548 27485 27058 27723 26683 27783 26919 27954 27234 28263 27391 28272 27327 28411 27527 28697 27853 28768 27995 29017 28051 29322 28050 29559 28425 29529 28703 29485 28707 29890 28650 30065 28965 30039 29120 30196 29113 30416 28970 30180 29410 30721 29302 30880 29891 30700 29701 31034 29913 30898 29709 30855 29664 30909 30073 30818 30097 31029 29728 31128 29882 30906 30004 30889 29986 31028 30198 30824 29708 30819 29802 30938 29448 30713 29836 30621 29540 30883 29744 30841 29571 30374 29681 30279 29693 30327 29738 30325 29617 30496 29227 30322 29411 30342 29259 30249 29091 29966 29279 29990 28864 29799 29060 30193 28914 29654 29136 29738 28687 29378 28611 29769 28518 29671 28516 29458 28624 29536 28338 29325 28416 29213 28424 29040 28361 29224 28348 29272 27809 29193 28428 28764 27967 28707 28055 28877 27622 28775 27957 28700 27668 28541 27731 28608 27445 28339 27528 27812 27363 27936 27148 27965 27159 27856 26876 27713 26882 27604 26821 27570 27048 27164 26955 27467 26670 27287 26582 27266 26291 27087 26185 26803 26320 26820 25971 26759 26004 26745 25961 26734 26131 26604 26076 26555 25728 26546 25760 26424 25594 25830 25686 26119 25718 25985 25404 26135 25376 25787 25153 25571 25191 25582 24915 25534 25261 25533 24671 25372 24549 25122 24241 25247 24073 25171 24664 24930 23974 24840 24165 24455 23601 24464 23621 24383 23388 24452 23680 24245 23445 24153 23543 23948 22964 23832 22957 23161 22639 23326 22684 23296 22493 22916 22406 22953 22506 22559 22076 22597 22024 22535 21854 22534 21856 22192 21604 21813 21437 21689 21289 21606 21072 21633 21211 21433 20796 21285 20646 21209 20520 21060 20577 20937 20202 20400 20249 20742 20009 20447 19720 19956 19646 20035 19435 19722 19120 19666 19191 19467 18678 19152 18830 19364 18699 19048 18673 18774 18162 18537 17961 18613 17866 18208 17883 18060 17770 17898 17456 17906 17326 17631 17132 17543 16617 16921 16557 16906 16669 16968 16310 16625 16203 16641 16065 16521 15728 15953 15737 15825 15136 15585 15153 15510 15034 15649 15226 15443 14750 15072 14389 14829 14284 14500 14093 14394 13790 14469 13688 14137 13588 13980 13622 13715 13455 13492 13136 13376 13042 13417 12959 12909 12754 12707 12618 12522 12321 12483 11983 12355 11891 12108 11836 11986 11427 11734 11399 11717 11196 11336 10925 11221 11103 11290 10796 10855 10749 10664 10428 10708 10320 10537 9946 10089 9814 10059 9753 10029 9729 9819 9452 9557 9249 9486 9135 9134 8928 8971 8910 8954 8657 8628 8472 8828 8326 8457 8198 8265 8030 8134 8013 7967 7846 7731 7644 7705 7467 7578 7379 7503 7205 7359 7020 7234 6955 7185 6791 6967 6780 6977 6640 6862 6671 6753 6362 6707 6249 6468 6314 6321 6091 6203 6175 5981 5905 5908 5826 5999 5798 5890 5465 5697 5386 5567 5324 5439 5368 5194 5069 5229 5031 5116 5080 5102 4907 4986 4740 4823 4809 4816 4707 4547 4584 4594 4402 4610 4328 4434 4317 4216 4259 4230 4044 4153 3976 4084 4011 4033 3886 3895 3811 3841 3674 3927 3679 3753 3577 3558 3566 3645 3472 3516 3443 3319 3238 3283 3251 3301 3178 3226 3097 3144 3070 3152 2929 2956 2824 2931 2776 2887 2773 2770 2674 2777 2576 2752 2536 2674 2547 2620 2426 2498 2410 2479 2363 2396 2331 2361 2203 2349 2130 2228 2137 2161 2081 2114 2080 2133 2050 2003 1965 2029 1846 1878 1888 1893 1862 1827 1805 1753 1788 1870 1709 1738 1686 1732 1713 1691 1581 1535 1603 1569 1473 1553 1468 1571 1432 1471 1361 1457 1490 1494 1368 1445 1328 1334 1361 1337 1265 1265 1240 1255 1210 1194 1208 1165 1177 1201 1099 1095 1163 1152 1076 1105 1067 1103 1023 1074 984 1020 978 987 906 967 888 923 911 892 910 870 919 842 874 893 824 810 788 815 763 730 751 791 715 714 714 755 675 692 643 670 679 657 626 595 605 637 645 630 562 653 610 591 605 565 590 580 527 523 485 523 491 476 479 470 508 475 506 437 438 482 434 458 467 428 398 438 391 430 346 428 397 380 368 392 328 362 363 368 371 346 326 339 364 326 293 296 302 297 288 290 265 301 308 279 270 288 262 279 247 254 268 263 234 245 247 226 224 262 234 232 216 243 189 223 215 213 223 198 199 209 196 217 214 175 194 14098 ];
Traffic[0]class1Average hops = 1 (92713203 samples)
traffic_manager/hop_stats_freq = [ 0 92713203 0 0 0 0 0 0 0 0 0 0 0 0 0 0 0 0 0 0 ];
=======Traffic[1]class0 ======
Traffic[1]class0Overall average latency = 9.51134 (2 samples)
Traffic[1]class0Overall average accepted rate = 0.079917 (2 samples)
Traffic[1]class0Overall min accepted rate = 0 (2 samples)
traffic_manager/latency_stat_0_freq = [ 0 11844767 1127414 572690 1098348 4622550 1171702 1191109 1789678 3123709 1224199 1023892 1059907 1101007 1039677 762041 5066739 1398998 1000407 970156 1118873 1118204 475492 360728 349772 372763 371433 164894 124356 119076 121060 126135 56615 40247 38674 38735 43723 19546 12772 13175 12530 15564 6724 4322 4370 4565 6351 2123 1403 1462 1761 2817 738 462 518 545 950 244 127 166 203 376 45 31 42 59 118 10 11 11 9 34 3 2 0 4 8 0 0 0 0 0 0 0 0 0 0 0 0 0 0 0 0 0 0 0 0 0 0 0 0 0 0 0 0 0 0 0 0 0 0 0 0 0 0 0 0 0 0 0 0 0 0 0 0 0 0 0 0 0 0 0 0 0 0 0 0 0 0 0 0 0 0 0 0 0 0 0 0 0 0 0 0 0 0 0 0 0 0 0 0 0 0 0 0 0 0 0 0 0 0 0 0 0 0 0 0 0 0 0 0 0 0 0 0 0 0 0 0 0 0 0 0 0 0 0 0 0 0 0 0 0 0 0 0 0 0 0 0 0 0 0 0 0 0 0 0 0 0 0 0 0 0 0 0 0 0 0 0 0 0 0 0 0 0 0 0 0 0 0 0 0 0 0 0 0 0 0 0 0 0 0 0 0 0 0 0 0 0 0 0 0 0 0 0 0 0 0 0 0 0 0 0 0 0 0 0 0 0 0 0 0 0 0 0 0 0 0 0 0 0 0 0 0 0 0 0 0 0 0 0 0 0 0 0 0 0 0 0 0 0 0 0 0 0 0 0 0 0 0 0 0 0 0 0 0 0 0 0 0 0 0 0 0 0 0 0 0 0 0 0 0 0 0 0 0 0 0 0 0 0 0 0 0 0 0 0 0 0 0 0 0 0 0 0 0 0 0 0 0 0 0 0 0 0 0 0 0 0 0 0 0 0 0 0 0 0 0 0 0 0 0 0 0 0 0 0 0 0 0 0 0 0 0 0 0 0 0 0 0 0 0 0 0 0 0 0 0 0 0 0 0 0 0 0 0 0 0 0 0 0 0 0 0 0 0 0 0 0 0 0 0 0 0 0 0 0 0 0 0 0 0 0 0 0 0 0 0 0 0 0 0 0 0 0 0 0 0 0 0 0 0 0 0 0 0 0 0 0 0 0 0 0 0 0 0 0 0 0 0 0 0 0 0 0 0 0 0 0 0 0 0 0 0 0 0 0 0 0 0 0 0 0 0 0 0 0 0 0 0 0 0 0 0 0 0 0 0 0 0 0 0 0 0 0 0 0 0 0 0 0 0 0 0 0 0 0 0 0 0 0 0 0 0 0 0 0 0 0 0 0 0 0 0 0 0 0 0 0 0 0 0 0 0 0 0 0 0 0 0 0 0 0 0 0 0 0 0 0 0 0 0 0 0 0 0 0 0 0 0 0 0 0 0 0 0 0 0 0 0 0 0 0 0 0 0 0 0 0 0 0 0 0 0 0 0 0 0 0 0 0 0 0 0 0 0 0 0 0 0 0 0 0 0 0 0 0 0 0 0 0 0 0 0 0 0 0 0 0 0 0 0 0 0 0 0 0 0 0 0 0 0 0 0 0 0 0 0 0 0 0 0 0 0 0 0 0 0 0 0 0 0 0 0 0 0 0 0 0 0 0 0 0 0 0 0 0 0 0 0 0 0 0 0 0 0 0 0 0 0 0 0 0 0 0 0 0 0 0 0 0 0 0 0 0 0 0 0 0 0 0 0 0 0 0 0 0 0 0 0 0 0 0 0 0 0 0 0 0 0 0 0 0 0 0 0 0 0 0 0 0 0 0 0 0 0 0 0 0 0 0 0 0 0 0 0 0 0 0 0 0 0 0 0 0 0 0 0 0 0 0 0 0 0 0 0 0 0 0 0 0 0 0 0 0 0 0 0 0 0 0 0 0 0 0 0 0 0 0 0 0 0 0 0 0 0 0 0 0 0 0 0 0 0 0 0 0 0 0 0 0 0 0 0 0 0 0 0 0 0 0 0 0 0 0 0 0 0 0 0 0 0 0 0 0 0 0 0 0 0 0 0 0 0 0 0 0 0 0 0 0 0 0 0 0 0 0 0 0 0 0 0 0 0 0 0 0 0 0 0 0 0 0 0 0 0 0 0 0 0 0 0 0 0 0 0 0 0 0 0 0 0 0 0 0 0 0 0 0 0 0 0 0 0 0 0 0 0 0 0 0 0 0 0 0 0 0 0 0 0 0 0 0 0 0 0 0 0 0 0 0 0 0 0 0 0 0 0 0 0 0 0 0 0 0 0 0 0 0 0 0 0 0 0 0 0 0 0 0 0 ];
Traffic[1]class1Average hops = 1 (92713203 samples)
traffic_manager/hop_stats_freq = [ 0 92713203 0 0 0 0 0 0 0 0 0 0 0 0 0 0 0 0 0 0 ];
----------------------------END-of-Interconnect-DETAILS-------------------------

gpgpu_simulation_time = 0 days, 7 hrs, 13 min, 18 sec (25998 sec)
gpgpu_simulation_rate = 43529 (inst/sec)
gpgpu_simulation_rate = 2661 (cycle/sec)
timestep: 2
LBM_allocateGrid: allocated 185.2 MByte
GPGPU-Sim: synchronize waiting for inactive GPU simulation
GPGPU-Sim API: Stream Manager State
GPGPU-Sim: detected inactive GPU simulation thread
LBM_showGridStatistics:
	nObstacleCells:  343321 nAccelCells:   26912 nFluidCells: 1789767
	minRho:   0.9961 maxRho:   1.0039 mass: 2.160000e+06
	minU: 0.000000e+00 maxU: 4.025417e-03

