

        *** GPGPU-Sim Simulator Version 3.2.1  [build 15629] ***


               1=functional simulation only, 0=detailed performance simulator)
GPGPU-Sim: Configuration options:

-network_mode                           1 # Interconnection network mode
-inter_config_file   config_fermi_islip.icnt # Interconnection network config file
-gpgpu_ptx_use_cuobjdump                    1 # Use cuobjdump to extract ptx and sass from binaries
-gpgpu_experimental_lib_support                    0 # Try to extract code from cuda libraries [Broken because of unknown cudaGetExportTable]
-gpgpu_ptx_convert_to_ptxplus                    0 # Convert SASS (native ISA) to ptxplus and run ptxplus
-gpgpu_ptx_force_max_capability                   20 # Force maximum compute capability
-gpgpu_ptx_inst_debug_to_file                    0 # Dump executed instructions' debug information to file
-gpgpu_ptx_inst_debug_file       inst_debug.txt # Executed instructions' debug output file
-gpgpu_ptx_inst_debug_thread_uid                    1 # Thread UID for executed instructions' debug output
-gpgpu_simd_model                       1 # 1 = post-dominator
-gpgpu_shader_core_pipeline              1536:32 # shader core pipeline config, i.e., {<nthread>:<warpsize>}
-gpgpu_tex_cache:l1  4:128:24,L:R:m:N,F:128:4,128:2 # per-shader L1 texture cache  (READ-ONLY) config  {<nsets>:<bsize>:<assoc>,<rep>:<wr>:<alloc>:<wr_alloc>,<mshr>:<N>:<merge>,<mq>:<rf>}
-gpgpu_const_cache:l1 64:64:2,L:R:f:N,A:2:32,4 # per-shader L1 constant memory cache  (READ-ONLY) config  {<nsets>:<bsize>:<assoc>,<rep>:<wr>:<alloc>:<wr_alloc>,<mshr>:<N>:<merge>,<mq>} 
-gpgpu_cache:il1     4:128:4,L:R:f:N,A:2:32,4 # shader L1 instruction cache config  {<nsets>:<bsize>:<assoc>,<rep>:<wr>:<alloc>:<wr_alloc>,<mshr>:<N>:<merge>,<mq>} 
-gpgpu_cache:dl1     32:128:4,L:L:m:N,A:32:8,8 # per-shader L1 data cache config  {<nsets>:<bsize>:<assoc>,<rep>:<wr>:<alloc>:<wr_alloc>,<mshr>:<N>:<merge>,<mq> | none}
-gpgpu_perfect_mem                      0 # enable perfect memory mode (no cache miss)
-n_regfile_gating_group                    4 # group of lanes that should be read/written together)
-gpgpu_clock_gated_reg_file                    0 # enable clock gated reg file for power calculations
-gpgpu_clock_gated_lanes                    0 # enable clock gated lanes for power calculations
-gpgpu_shader_registers                32768 # Number of registers per shader core. Limits number of concurrent CTAs. (default 8192)
-gpgpu_shader_cta                       8 # Maximum number of concurrent CTAs in shader (default 8)
-gpgpu_n_clusters                      14 # number of processing clusters
-gpgpu_n_cores_per_cluster                    1 # number of simd cores per cluster
-gpgpu_n_cluster_ejection_buffer_size                    8 # number of packets in ejection buffer
-gpgpu_n_ldst_response_buffer_size                    2 # number of response packets in ld/st unit ejection buffer
-gpgpu_shmem_size                   16384 # Size of shared memory per shader core (default 16kB)
-gpgpu_shmem_num_banks                   32 # Number of banks in the shared memory in each shader core (default 16)
-gpgpu_shmem_limited_broadcast                    0 # Limit shared memory to do one broadcast per cycle (default on)
-gpgpu_shmem_warp_parts                    1 # Number of portions a warp is divided into for shared memory bank conflict check 
-gpgpu_warpdistro_shader                   -1 # Specify which shader core to collect the warp size distribution from
-gpgpu_warp_issue_shader                    0 # Specify which shader core to collect the warp issue distribution from
-gpgpu_local_mem_map                    1 # Mapping from local memory space address to simulated GPU physical address space (default = enabled)
-gpgpu_num_reg_banks                   16 # Number of register banks (default = 8)
-gpgpu_reg_bank_use_warp_id                    0 # Use warp ID in mapping registers to banks (default = off)
-gpgpu_operand_collector_num_units_sp                    6 # number of collector units (default = 4)
-gpgpu_operand_collector_num_units_sfu                    8 # number of collector units (default = 4)
-gpgpu_operand_collector_num_units_mem                    2 # number of collector units (default = 2)
-gpgpu_operand_collector_num_units_gen                    0 # number of collector units (default = 0)
-gpgpu_operand_collector_num_in_ports_sp                    2 # number of collector unit in ports (default = 1)
-gpgpu_operand_collector_num_in_ports_sfu                    1 # number of collector unit in ports (default = 1)
-gpgpu_operand_collector_num_in_ports_mem                    1 # number of collector unit in ports (default = 1)
-gpgpu_operand_collector_num_in_ports_gen                    0 # number of collector unit in ports (default = 0)
-gpgpu_operand_collector_num_out_ports_sp                    2 # number of collector unit in ports (default = 1)
-gpgpu_operand_collector_num_out_ports_sfu                    1 # number of collector unit in ports (default = 1)
-gpgpu_operand_collector_num_out_ports_mem                    1 # number of collector unit in ports (default = 1)
-gpgpu_operand_collector_num_out_ports_gen                    0 # number of collector unit in ports (default = 0)
-gpgpu_coalesce_arch                   13 # Coalescing arch (default = 13, anything else is off for now)
-gpgpu_num_sched_per_core                    2 # Number of warp schedulers per core
-gpgpu_max_insn_issue_per_warp                    1 # Max number of instructions that can be issued per warp in one cycle by scheduler
-gpgpu_simt_core_sim_order                    1 # Select the simulation order of cores in a cluster (0=Fix, 1=Round-Robin)
-gpgpu_pipeline_widths        2,1,1,2,1,1,2 # Pipeline widths ID_OC_SP,ID_OC_SFU,ID_OC_MEM,OC_EX_SP,OC_EX_SFU,OC_EX_MEM,EX_WB
-gpgpu_num_sp_units                     2 # Number of SP units (default=1)
-gpgpu_num_sfu_units                    1 # Number of SF units (default=1)
-gpgpu_num_mem_units                    1 # Number if ldst units (default=1) WARNING: not hooked up to anything
-gpgpu_scheduler                      lrr # Scheduler configuration: < lrr | gto | two_level_active > If two_level_active:<num_active_warps>:<inner_prioritization>:<outer_prioritization>For complete list of prioritization values see shader.h enum scheduler_prioritization_typeDefault: gto
-gpgpu_dram_scheduler                    1 # 0 = fifo, 1 = FR-FCFS (defaul)
-gpgpu_dram_partition_queues              8:8:8:8 # i2$:$2d:d2$:$2i
-l2_ideal                               0 # Use a ideal L2 cache that always hit
-gpgpu_cache:dl2     64:128:16,L:B:m:W,A:32:4,4 # unified banked L2 data cache config  {<nsets>:<bsize>:<assoc>,<rep>:<wr>:<alloc>:<wr_alloc>,<mshr>:<N>:<merge>,<mq>}
-gpgpu_cache:dl2_texture_only                    0 # L2 cache used for texture only
-gpgpu_n_mem                            5 # number of memory modules (e.g. memory controllers) in gpu
-gpgpu_n_mem_per_ctrlr                    2 # number of memory chips per memory controller
-gpgpu_memlatency_stat                   14 # track and display latency statistics 0x2 enables MC, 0x4 enables queue logs
-gpgpu_frfcfs_dram_sched_queue_size                   16 # 0 = unlimited (default); # entries per chip
-gpgpu_dram_return_queue_size                    0 # 0 = unlimited (default); # entries per chip
-gpgpu_dram_buswidth                    4 # default = 4 bytes (8 bytes per cycle at DDR)
-gpgpu_dram_burst_length                    8 # Burst length of each DRAM request (default = 4 data bus cycle)
-dram_data_command_freq_ratio                    4 # Frequency ratio between DRAM data bus and command bus (default = 2 times, i.e. DDR)
-gpgpu_dram_timing_opt nbk=16:CCD=2:RRD=6:RCD=12:RAS=28:RP=12:RC=40: CL=12:WL=4:CDLR=5:WR=12:nbkgrp=4:CCDL=3:RTPL=2 # DRAM timing parameters = {nbk:tCCD:tRRD:tRCD:tRAS:tRP:tRC:CL:WL:tCDLR:tWR:nbkgrp:tCCDL:tRTPL}
-rop_latency                           60 # ROP queue latency (default 85)
-dram_latency                          50 # DRAM latency (default 30)
-gpgpu_mem_addr_mapping dramid@8;00000000.00000000.00000000.00000000.0000RRRR.RRRRRRRR.BBBBCCCC.CCSSSSSS # mapping memory address to dram model {dramid@<start bit>;<memory address map>}
-gpgpu_mem_addr_test                    0 # run sweep test to check address mapping for aliased address
-gpgpu_mem_address_mask                    1 # 0 = old addressing mask, 1 = new addressing mask, 2 = new add. mask + flipped bank sel and chip sel bits
-gpuwattch_xml_file         gpuwattch.xml # GPUWattch XML file
-power_simulation_enabled                    1 # Turn on power simulator (1=On, 0=Off)
-power_per_cycle_dump                    0 # Dump detailed power output each cycle
-power_trace_enabled                    1 # produce a file for the power trace (1=On, 0=Off)
-power_trace_zlevel                     6 # Compression level of the power trace output log (0=no comp, 9=highest)
-steady_power_levels_enabled                    0 # produce a file for the steady power levels (1=On, 0=Off)
-steady_state_definition                  8:4 # allowed deviation:number of samples
-gpgpu_max_cycle                        0 # terminates gpu simulation early (0 = no limit)
-gpgpu_max_insn                         0 # terminates gpu simulation early (0 = no limit)
-gpgpu_max_cta                          0 # terminates gpu simulation early (0 = no limit)
-gpgpu_runtime_stat                   500 # display runtime statistics such as dram utilization {<freq>:<flag>}
-gpgpu_flush_l1_cache                    0 # Flush L1 cache at the end of each kernel call
-gpgpu_flush_l2_cache                    0 # Flush L2 cache at the end of each kernel call
-gpgpu_deadlock_detect                    1 # Stop the simulation at deadlock (1=on (default), 0=off)
-gpgpu_ptx_instruction_classification                    0 # if enabled will classify ptx instruction types per kernel (Max 255 kernels now)
-gpgpu_ptx_sim_mode                     0 # Select between Performance (default) or Functional simulation (1)
-gpgpu_clock_domains 300.0:600.0:300.0:900.0 # Clock Domain Frequencies in MhZ {<Core Clock>:<ICNT Clock>:<L2 Clock>:<DRAM Clock>}
-gpgpu_max_concurrent_kernel                    8 # maximum kernels that can run concurrently on GPU
-gpgpu_cflog_interval                    0 # Interval between each snapshot in control flow logger
-visualizer_enabled                     0 # Turn on visualizer output (1=On, 0=Off)
-visualizer_outputfile                 NULL # Specifies the output log file for visualizer
-visualizer_zlevel                      6 # Compression level of the visualizer output log (0=no comp, 9=highest)
-trace_enabled                          0 # Turn on traces
-trace_components                    none # comma seperated list of traces to enable. Complete list found in trace_streams.tup. Default none
-trace_sampling_core                    0 # The core which is printed using CORE_DPRINTF. Default 0
-enable_ptx_file_line_stats                    1 # Turn on PTX source line statistic profiling. (1 = On)
-ptx_line_stats_filename gpgpu_inst_stats.txt # Output file for PTX source line statistics.
-save_embedded_ptx                      0 # saves ptx files embedded in binary as <n>.ptx
-keep                                   0 # keep intermediate files created by GPGPU-Sim when interfacing with external programs
-gpgpu_ptx_save_converted_ptxplus                    0 # Saved converted ptxplus to a file
-ptx_opcode_latency_int         4,13,4,5,145 # Opcode latencies for integers <ADD,MAX,MUL,MAD,DIV>Default 1,1,19,25,145
-ptx_opcode_latency_fp          4,13,4,5,39 # Opcode latencies for single precision floating points <ADD,MAX,MUL,MAD,DIV>Default 1,1,1,1,30
-ptx_opcode_latency_dp         8,19,8,8,330 # Opcode latencies for double precision floating points <ADD,MAX,MUL,MAD,DIV>Default 8,8,8,8,335
-ptx_opcode_initiation_int            1,2,2,1,8 # Opcode initiation intervals for integers <ADD,MAX,MUL,MAD,DIV>Default 1,1,4,4,32
-ptx_opcode_initiation_fp            1,2,1,1,4 # Opcode initiation intervals for single precision floating points <ADD,MAX,MUL,MAD,DIV>Default 6313a19a979c549f7ca6b7277682eb79  /tmp/tmp.PtqefLdAHE/lbm__SIZE1_1
1,1,1,1,5
-ptx_opcode_initiation_dp         8,16,8,8,130 # Opcode initiation intervals for double precision floating points <ADD,MAX,MUL,MAD,DIV>Default 8,8,8,8,130
DRAM Timing Options:
nbk                                    16 # number of banks
CCD                                     2 # column to column delay
RRD                                     6 # minimal delay between activation of rows in different banks
RCD                                    12 # row to column delay
RAS                                    28 # time needed to activate row
RP                                     12 # time needed to precharge (deactivate) row
RC                                     40 # row cycle time
CDLR                                    5 # switching from write to read (changes tWTR)
WR                                     12 # last data-in to row precharge
CL                                     12 # CAS latency
WL                                      4 # Write latency
nbkgrp                                  4 # number of bank groups
CCDL                                    3 # column to column delay between accesses to different bank groups
RTPL                                    2 # read to precharge delay between accesses to different bank groups
addr_dec_mask[CHIP]  = 0000000000000000 	high:64 low:0
addr_dec_mask[BK]    = 000000000000f000 	high:16 low:12
addr_dec_mask[ROW]   = 000000000fff0000 	high:28 low:16
addr_dec_mask[COL]   = 0000000000000fff 	high:12 low:0
addr_dec_mask[BURST] = 000000000000003f 	high:6 low:0
*** Initializing Memory Statistics ***
self exe links to: /tmp/tmp.PtqefLdAHE/lbm__SIZE1_1
Running md5sum using "md5sum /tmp/tmp.PtqefLdAHE/lbm__SIZE1_1 "
Running cuobjdump using "$CUDA_INSTALL_PATH/bin/cuobjdump -ptx -elf -sass /tmp/tmp.PtqefLdAHE/lbm__SIZE1_1 > _cuobjdump_complete_output_4iCPtn"
Parsing file _cuobjdump_complete_output_4iCPtn
######### cuobjdump parser ########
## Adding new section PTX
Adding ptx filename: _cuobjdump_1.ptx
Adding arch: sm_13
Adding identifier: benchmarks/lbm/lbm.cu
## Adding new section ELF
Adding arch: sm_13
Adding identifier: benchmarks/lbm/lbm.cu
Done parsing!!!
Adding _cuobjdump_1.ptx with cubin handle 1
Running: cat _ptx_8A00WJ | sed 's/.version 1.5/.version 1.4/' | sed 's/, texmode_independent//' | sed 's/\(\.extern \.const\[1\] .b8 \w\+\)\[\]/\1\[1\]/' | sed 's/const\[.\]/const\[0\]/g' > _ptx2_Zhodq6
LBM_allocateGrid: allocated 185.2 MByte
MAIN_printInfo:
	grid size      : 120 x 120 x 150 = 2.16 * 10^6 Cells
	nTimeSteps     : 2
	result file    : (null)
	action         : store
	simulation type: lid-driven cavity
	obstacle file  : /home/cnugteren/software/parboil-2.5/datasets/lbm/long/input/120_120_150_ldc.of

LBM_allocateGrid: allocated 185.2 MByte
LBM_allocateGrid: allocated 185.2 MByte
LBM_showGridStatistics:
	nObstacleCells:  343321 nAccelCells:   26912 nFluidCells: 1789767
	minRho:   1.0000 maxRho:   1.0000 mass: 2.160000e+06
	minU: 0.000000e+00 maxU: 0.000000e+00


kernel '_Z27performStreamCollide_kernelPfS_' transfer to GPU hardware scheduler
kernel_name = _Z27performStreamCollide_kernelPfS_ 
kernel_launch_uid = 1 
gpu_sim_cycle = 20480876
gpu_sim_insn = 565843056
gpu_ipc =      27.6279
gpu_tot_sim_cycle = 20480876
gpu_tot_sim_insn = 565843056
gpu_tot_ipc =      27.6279
gpu_tot_issued_cta = 0
gpu_stall_dramfull = 16743064
gpu_stall_icnt2sh    = 57601068
gpu_total_sim_rate=57034
Cache L1D_000:	Size = 16384 B (32 Set x 4-way x 128 byte line)
		Access = 1977000, Miss = 1261395 (0.638), PendingHit = 118338 (0.0599)
Cache L1D_001:	Size = 16384 B (32 Set x 4-way x 128 byte line)
		Access = 1891500, Miss = 1359950 (0.719), PendingHit = 110256 (0.0583)
Cache L1D_002:	Size = 16384 B (32 Set x 4-way x 128 byte line)
		Access = 1945500, Miss = 1295175 (0.666), PendingHit = 119383 (0.0614)
Cache L1D_003:	Size = 16384 B (32 Set x 4-way x 128 byte line)
		Access = 1891500, Miss = 1354334 (0.716), PendingHit = 112338 (0.0594)
Cache L1D_004:	Size = 16384 B (32 Set x 4-way x 128 byte line)
		Access = 1965000, Miss = 1270085 (0.646), PendingHit = 121359 (0.0618)
Cache L1D_005:	Size = 16384 B (32 Set x 4-way x 128 byte line)
		Access = 1924500, Miss = 1315809 (0.684), PendingHit = 115449 (0.06)
Cache L1D_006:	Size = 16384 B (32 Set x 4-way x 128 byte line)
		Access = 1947000, Miss = 1289440 (0.662), PendingHit = 122081 (0.0627)
Cache L1D_007:	Size = 16384 B (32 Set x 4-way x 128 byte line)
		Access = 1981500, Miss = 1252456 (0.632), PendingHit = 122810 (0.062)
Cache L1D_008:	Size = 16384 B (32 Set x 4-way x 128 byte line)
		Access = 1936500, Miss = 1300987 (0.672), PendingHit = 114936 (0.0594)
Cache L1D_009:	Size = 16384 B (32 Set x 4-way x 128 byte line)
		Access = 1882500, Miss = 1357706 (0.721), PendingHit = 109550 (0.0582)
Cache L1D_010:	Size = 16384 B (32 Set x 4-way x 128 byte line)
		Access = 1945500, Miss = 1291699 (0.664), PendingHit = 115036 (0.0591)
Cache L1D_011:	Size = 16384 B (32 Set x 4-way x 128 byte line)
		Access = 1905000, Miss = 1336707 (0.702), PendingHit = 113652 (0.0597)
Cache L1D_012:	Size = 16384 B (32 Set x 4-way x 128 byte line)
		Access = 1923000, Miss = 1319770 (0.686), PendingHit = 118821 (0.0618)
Cache L1D_013:	Size = 16384 B (32 Set x 4-way x 128 byte line)
		Access = 1884000, Miss = 1363934 (0.724), PendingHit = 109306 (0.058)
total_dl1_misses=18369447
total_dl1_accesses=27000000
total_dl1_miss_rate= 0.680350
Shader 0 dynamic_warp_id issue ditsribution:
dynamic_warp_id:
0, 1, 2, 3, 4, 5, 6, 7, 8, 9, 10, 11, 12, 13, 14, 15, 16, 17, 18, 19, 20, 21, 22, 23, 24, 25, 26, 27, 28, 29, 30, 31, 32, 33, 34, 35, 36, 37, 38, 39, 40, 41, 42, 43, 44, 45, 46, 47, 48, 49, 50, 51, 52, 53, 54, 55, 56, 57, 58, 59, 60, 61, 62, 63, 64, 65, 66, 67, 68, 69, 70, 71, 72, 73, 74, 75, 76, 77, 78, 79, 80, 81, 82, 83, 84, 85, 86, 87, 88, 89, 90, 91, 92, 93, 94, 95, 96, 97, 98, 99, 100, 101, 102, 103, 104, 105, 106, 107, 108, 109, 110, 111, 112, 113, 114, 115, 116, 117, 118, 119, 120, 121, 122, 123, 124, 125, 126, 127, 128, 129, 130, 131, 132, 133, 134, 135, 136, 137, 138, 139, 140, 141, 142, 143, 144, 145, 146, 147, 148, 149, 150, 151, 152, 153, 154, 155, 156, 157, 158, 159, 160, 161, 162, 163, 164, 165, 166, 167, 168, 169, 170, 171, 172, 173, 174, 175, 176, 177, 178, 179, 180, 181, 182, 183, 184, 185, 186, 187, 188, 189, 190, 191, 192, 193, 194, 195, 196, 197, 198, 199, 200, 201, 202, 203, 204, 205, 206, 207, 208, 209, 210, 211, 212, 213, 214, 215, 216, 217, 218, 219, 220, 221, 222, 223, 224, 225, 226, 227, 228, 229, 230, 231, 232, 233, 234, 235, 236, 237, 238, 239, 240, 241, 242, 243, 244, 245, 246, 247, 248, 249, 250, 251, 252, 253, 254, 255, 256, 257, 258, 259, 260, 261, 262, 263, 264, 265, 266, 267, 268, 269, 270, 271, 272, 273, 274, 275, 276, 277, 278, 279, 280, 281, 282, 283, 284, 285, 286, 287, 288, 289, 290, 291, 292, 293, 294, 295, 296, 297, 298, 299, 300, 301, 302, 303, 304, 305, 306, 307, 308, 309, 310, 311, 312, 313, 314, 315, 316, 317, 318, 319, 320, 321, 322, 323, 324, 325, 326, 327, 328, 329, 330, 331, 332, 333, 334, 335, 336, 337, 338, 339, 340, 341, 342, 343, 344, 345, 346, 347, 348, 349, 350, 351, 352, 353, 354, 355, 356, 357, 358, 359, 360, 361, 362, 363, 364, 365, 366, 367, 368, 369, 370, 371, 372, 373, 374, 375, 376, 377, 378, 379, 380, 381, 382, 383, 384, 385, 386, 387, 388, 389, 390, 391, 392, 393, 394, 395, 396, 397, 398, 399, 400, 401, 402, 403, 404, 405, 406, 407, 408, 409, 410, 411, 412, 413, 414, 415, 416, 417, 418, 419, 420, 421, 422, 423, 424, 425, 426, 427, 428, 429, 430, 431, 432, 433, 434, 435, 436, 437, 438, 439, 440, 441, 442, 443, 444, 445, 446, 447, 448, 449, 450, 451, 452, 453, 454, 455, 456, 457, 458, 459, 460, 461, 462, 463, 464, 465, 466, 467, 468, 469, 470, 471, 472, 473, 474, 475, 476, 477, 478, 479, 480, 481, 482, 483, 484, 485, 486, 487, 488, 489, 490, 491, 492, 493, 494, 495, 496, 497, 498, 499, 500, 501, 502, 503, 504, 505, 506, 507, 508, 509, 510, 511, 512, 513, 514, 515, 516, 517, 518, 519, 520, 521, 522, 523, 524, 525, 526, 527, 528, 529, 530, 531, 532, 533, 534, 535, 536, 537, 538, 539, 540, 541, 542, 543, 544, 545, 546, 547, 548, 549, 550, 551, 552, 553, 554, 555, 556, 557, 558, 559, 560, 561, 562, 563, 564, 565, 566, 567, 568, 569, 570, 571, 572, 573, 574, 575, 576, 577, 578, 579, 580, 581, 582, 583, 584, 585, 586, 587, 588, 589, 590, 591, 592, 593, 594, 595, 596, 597, 598, 599, 600, 601, 602, 603, 604, 605, 606, 607, 608, 609, 610, 611, 612, 613, 614, 615, 616, 617, 618, 619, 620, 621, 622, 623, 624, 625, 626, 627, 628, 629, 630, 631, 632, 633, 634, 635, 636, 637, 638, 639, 640, 641, 642, 643, 644, 645, 646, 647, 648, 649, 650, 651, 652, 653, 654, 655, 656, 657, 658, 659, 660, 661, 662, 663, 664, 665, 666, 667, 668, 669, 670, 671, 672, 673, 674, 675, 676, 677, 678, 679, 680, 681, 682, 683, 684, 685, 686, 687, 688, 689, 690, 691, 692, 693, 694, 695, 696, 697, 698, 699, 700, 701, 702, 703, 704, 705, 706, 707, 708, 709, 710, 711, 712, 713, 714, 715, 716, 717, 718, 719, 720, 721, 722, 723, 724, 725, 726, 727, 728, 729, 730, 731, 732, 733, 734, 735, 736, 737, 738, 739, 740, 741, 742, 743, 744, 745, 746, 747, 748, 749, 750, 751, 752, 753, 754, 755, 756, 757, 758, 759, 760, 761, 762, 763, 764, 765, 766, 767, 768, 769, 770, 771, 772, 773, 774, 775, 776, 777, 778, 779, 780, 781, 782, 783, 784, 785, 786, 787, 788, 789, 790, 791, 792, 793, 794, 795, 796, 797, 798, 799, 800, 801, 802, 803, 804, 805, 806, 807, 808, 809, 810, 811, 812, 813, 814, 815, 816, 817, 818, 819, 820, 821, 822, 823, 824, 825, 826, 827, 828, 829, 830, 831, 832, 833, 834, 835, 836, 837, 838, 839, 840, 841, 842, 843, 844, 845, 846, 847, 848, 849, 850, 851, 852, 853, 854, 855, 856, 857, 858, 859, 860, 861, 862, 863, 864, 865, 866, 867, 868, 869, 870, 871, 872, 873, 874, 875, 876, 877, 878, 879, 880, 881, 882, 883, 884, 885, 886, 887, 888, 889, 890, 891, 892, 893, 894, 895, 896, 897, 898, 899, 900, 901, 902, 903, 904, 905, 906, 907, 908, 909, 910, 911, 912, 913, 914, 915, 916, 917, 918, 919, 920, 921, 922, 923, 924, 925, 926, 927, 928, 929, 930, 931, 932, 933, 934, 935, 936, 937, 938, 939, 940, 941, 942, 943, 944, 945, 946, 947, 948, 949, 950, 951, 952, 953, 954, 955, 956, 957, 958, 959, 960, 961, 962, 963, 964, 965, 966, 967, 968, 969, 970, 971, 972, 973, 974, 975, 976, 977, 978, 979, 980, 981, 982, 983, 984, 985, 986, 987, 988, 989, 990, 991, 992, 993, 994, 995, 996, 997, 998, 999, 1000, 1001, 1002, 1003, 1004, 1005, 1006, 1007, 1008, 1009, 1010, 1011, 1012, 1013, 1014, 1015, 1016, 1017, 1018, 1019, 1020, 1021, 1022, 1023, 1024, 1025, 1026, 1027, 1028, 1029, 1030, 1031, 1032, 1033, 1034, 1035, 1036, 1037, 1038, 1039, 1040, 1041, 1042, 1043, 1044, 1045, 1046, 1047, 1048, 1049, 1050, 1051, 1052, 1053, 1054, 1055, 1056, 1057, 1058, 1059, 1060, 1061, 1062, 1063, 1064, 1065, 1066, 1067, 1068, 1069, 1070, 1071, 1072, 1073, 1074, 1075, 1076, 1077, 1078, 1079, 1080, 1081, 1082, 1083, 1084, 1085, 1086, 1087, 1088, 1089, 1090, 1091, 1092, 1093, 1094, 1095, 1096, 1097, 1098, 1099, 1100, 1101, 1102, 1103, 1104, 1105, 1106, 1107, 1108, 1109, 1110, 1111, 1112, 1113, 1114, 1115, 1116, 1117, 1118, 1119, 1120, 1121, 1122, 1123, 1124, 1125, 1126, 1127, 1128, 1129, 1130, 1131, 1132, 1133, 1134, 1135, 1136, 1137, 1138, 1139, 1140, 1141, 1142, 1143, 1144, 1145, 1146, 1147, 1148, 1149, 1150, 1151, 1152, 1153, 1154, 1155, 1156, 1157, 1158, 1159, 1160, 1161, 1162, 1163, 1164, 1165, 1166, 1167, 1168, 1169, 1170, 1171, 1172, 1173, 1174, 1175, 1176, 1177, 1178, 1179, 1180, 1181, 1182, 1183, 1184, 1185, 1186, 1187, 1188, 1189, 1190, 1191, 1192, 1193, 1194, 1195, 1196, 1197, 1198, 1199, 1200, 1201, 1202, 1203, 1204, 1205, 1206, 1207, 1208, 1209, 1210, 1211, 1212, 1213, 1214, 1215, 1216, 1217, 1218, 1219, 1220, 1221, 1222, 1223, 1224, 1225, 1226, 1227, 1228, 1229, 1230, 1231, 1232, 1233, 1234, 1235, 1236, 1237, 1238, 1239, 1240, 1241, 1242, 1243, 1244, 1245, 1246, 1247, 1248, 1249, 1250, 1251, 1252, 1253, 1254, 1255, 1256, 1257, 1258, 1259, 1260, 1261, 1262, 1263, 1264, 1265, 1266, 1267, 1268, 1269, 1270, 1271, 1272, 1273, 1274, 1275, 1276, 1277, 1278, 1279, 1280, 1281, 1282, 1283, 1284, 1285, 1286, 1287, 1288, 1289, 1290, 1291, 1292, 1293, 1294, 1295, 1296, 1297, 1298, 1299, 1300, 1301, 1302, 1303, 1304, 1305, 1306, 1307, 1308, 1309, 1310, 1311, 1312, 1313, 1314, 1315, 1316, 1317, 1318, 1319, 1320, 1321, 1322, 1323, 1324, 1325, 1326, 1327, 1328, 1329, 1330, 1331, 1332, 1333, 1334, 1335, 1336, 1337, 1338, 1339, 1340, 1341, 1342, 1343, 1344, 1345, 1346, 1347, 1348, 1349, 1350, 1351, 1352, 1353, 1354, 1355, 1356, 1357, 1358, 1359, 1360, 1361, 1362, 1363, 1364, 1365, 1366, 1367, 1368, 1369, 1370, 1371, 1372, 1373, 1374, 1375, 1376, 1377, 1378, 1379, 1380, 1381, 1382, 1383, 1384, 1385, 1386, 1387, 1388, 1389, 1390, 1391, 1392, 1393, 1394, 1395, 1396, 1397, 1398, 1399, 1400, 1401, 1402, 1403, 1404, 1405, 1406, 1407, 1408, 1409, 1410, 1411, 1412, 1413, 1414, 1415, 1416, 1417, 1418, 1419, 1420, 1421, 1422, 1423, 1424, 1425, 1426, 1427, 1428, 1429, 1430, 1431, 1432, 1433, 1434, 1435, 1436, 1437, 1438, 1439, 1440, 1441, 1442, 1443, 1444, 1445, 1446, 1447, 1448, 1449, 1450, 1451, 1452, 1453, 1454, 1455, 1456, 1457, 1458, 1459, 1460, 1461, 1462, 1463, 1464, 1465, 1466, 1467, 1468, 1469, 1470, 1471, 1472, 1473, 1474, 1475, 1476, 1477, 1478, 1479, 1480, 1481, 1482, 1483, 1484, 1485, 1486, 1487, 1488, 1489, 1490, 1491, 1492, 1493, 1494, 1495, 1496, 1497, 1498, 1499, 1500, 1501, 1502, 1503, 1504, 1505, 1506, 1507, 1508, 1509, 1510, 1511, 1512, 1513, 1514, 1515, 1516, 1517, 1518, 1519, 1520, 1521, 1522, 1523, 1524, 1525, 1526, 1527, 1528, 1529, 1530, 1531, 1532, 1533, 1534, 1535, 1536, 1537, 1538, 1539, 1540, 1541, 1542, 1543, 1544, 1545, 1546, 1547, 1548, 1549, 1550, 1551, 1552, 1553, 1554, 1555, 1556, 1557, 1558, 1559, 1560, 1561, 1562, 1563, 1564, 1565, 1566, 1567, 1568, 1569, 1570, 1571, 1572, 1573, 1574, 1575, 1576, 1577, 1578, 1579, 1580, 1581, 1582, 1583, 1584, 1585, 1586, 1587, 1588, 1589, 1590, 1591, 1592, 1593, 1594, 1595, 1596, 1597, 1598, 1599, 1600, 1601, 1602, 1603, 1604, 1605, 1606, 1607, 1608, 1609, 1610, 1611, 1612, 1613, 1614, 1615, 1616, 1617, 1618, 1619, 1620, 1621, 1622, 1623, 1624, 1625, 1626, 1627, 1628, 1629, 1630, 1631, 1632, 1633, 1634, 1635, 1636, 1637, 1638, 1639, 1640, 1641, 1642, 1643, 1644, 1645, 1646, 1647, 1648, 1649, 1650, 1651, 1652, 1653, 1654, 1655, 1656, 1657, 1658, 1659, 1660, 1661, 1662, 1663, 1664, 1665, 1666, 1667, 1668, 1669, 1670, 1671, 1672, 1673, 1674, 1675, 1676, 1677, 1678, 1679, 1680, 1681, 1682, 1683, 1684, 1685, 1686, 1687, 1688, 1689, 1690, 1691, 1692, 1693, 1694, 1695, 1696, 1697, 1698, 1699, 1700, 1701, 1702, 1703, 1704, 1705, 1706, 1707, 1708, 1709, 1710, 1711, 1712, 1713, 1714, 1715, 1716, 1717, 1718, 1719, 1720, 1721, 1722, 1723, 1724, 1725, 1726, 1727, 1728, 1729, 1730, 1731, 1732, 1733, 1734, 1735, 1736, 1737, 1738, 1739, 1740, 1741, 1742, 1743, 1744, 1745, 1746, 1747, 1748, 1749, 1750, 1751, 1752, 1753, 1754, 1755, 1756, 1757, 1758, 1759, 1760, 1761, 1762, 1763, 1764, 1765, 1766, 1767, 1768, 1769, 1770, 1771, 1772, 1773, 1774, 1775, 1776, 1777, 1778, 1779, 1780, 1781, 1782, 1783, 1784, 1785, 1786, 1787, 1788, 1789, 1790, 1791, 1792, 1793, 1794, 1795, 1796, 1797, 1798, 1799, 1800, 1801, 1802, 1803, 1804, 1805, 1806, 1807, 1808, 1809, 1810, 1811, 1812, 1813, 1814, 1815, 1816, 1817, 1818, 1819, 1820, 1821, 1822, 1823, 1824, 1825, 1826, 1827, 1828, 1829, 1830, 1831, 1832, 1833, 1834, 1835, 1836, 1837, 1838, 1839, 1840, 1841, 1842, 1843, 1844, 1845, 1846, 1847, 1848, 1849, 1850, 1851, 1852, 1853, 1854, 1855, 1856, 1857, 1858, 1859, 1860, 1861, 1862, 1863, 1864, 1865, 1866, 1867, 1868, 1869, 1870, 1871, 1872, 1873, 1874, 1875, 1876, 1877, 1878, 1879, 1880, 1881, 1882, 1883, 1884, 1885, 1886, 1887, 1888, 1889, 1890, 1891, 1892, 1893, 1894, 1895, 1896, 1897, 1898, 1899, 1900, 1901, 1902, 1903, 1904, 1905, 1906, 1907, 1908, 1909, 1910, 1911, 1912, 1913, 1914, 1915, 1916, 1917, 1918, 1919, 1920, 1921, 1922, 1923, 1924, 1925, 1926, 1927, 1928, 1929, 1930, 1931, 1932, 1933, 1934, 1935, 1936, 1937, 1938, 1939, 1940, 1941, 1942, 1943, 1944, 1945, 1946, 1947, 1948, 1949, 1950, 1951, 1952, 1953, 1954, 1955, 1956, 1957, 1958, 1959, 1960, 1961, 1962, 1963, 1964, 1965, 1966, 1967, 1968, 1969, 1970, 1971, 1972, 1973, 1974, 1975, 1976, 1977, 1978, 1979, 1980, 1981, 1982, 1983, 1984, 1985, 1986, 1987, 1988, 1989, 1990, 1991, 1992, 1993, 1994, 1995, 1996, 1997, 1998, 1999, 2000, 2001, 2002, 2003, 2004, 2005, 2006, 2007, 2008, 2009, 2010, 2011, 2012, 2013, 2014, 2015, 2016, 2017, 2018, 2019, 2020, 2021, 2022, 2023, 2024, 2025, 2026, 2027, 2028, 2029, 2030, 2031, 2032, 2033, 2034, 2035, 2036, 2037, 2038, 2039, 2040, 2041, 2042, 2043, 2044, 2045, 2046, 2047, 2048, 2049, 2050, 2051, 2052, 2053, 2054, 2055, 2056, 2057, 2058, 2059, 2060, 2061, 2062, 2063, 2064, 2065, 2066, 2067, 2068, 2069, 2070, 2071, 2072, 2073, 2074, 2075, 2076, 2077, 2078, 2079, 2080, 2081, 2082, 2083, 2084, 2085, 2086, 2087, 2088, 2089, 2090, 2091, 2092, 2093, 2094, 2095, 2096, 2097, 2098, 2099, 2100, 2101, 2102, 2103, 2104, 2105, 2106, 2107, 2108, 2109, 2110, 2111, 2112, 2113, 2114, 2115, 2116, 2117, 2118, 2119, 2120, 2121, 2122, 2123, 2124, 2125, 2126, 2127, 2128, 2129, 2130, 2131, 2132, 2133, 2134, 2135, 2136, 2137, 2138, 2139, 2140, 2141, 2142, 2143, 2144, 2145, 2146, 2147, 2148, 2149, 2150, 2151, 2152, 2153, 2154, 2155, 2156, 2157, 2158, 2159, 2160, 2161, 2162, 2163, 2164, 2165, 2166, 2167, 2168, 2169, 2170, 2171, 2172, 2173, 2174, 2175, 2176, 2177, 2178, 2179, 2180, 2181, 2182, 2183, 2184, 2185, 2186, 2187, 2188, 2189, 2190, 2191, 2192, 2193, 2194, 2195, 2196, 2197, 2198, 2199, 2200, 2201, 2202, 2203, 2204, 2205, 2206, 2207, 2208, 2209, 2210, 2211, 2212, 2213, 2214, 2215, 2216, 2217, 2218, 2219, 2220, 2221, 2222, 2223, 2224, 2225, 2226, 2227, 2228, 2229, 2230, 2231, 2232, 2233, 2234, 2235, 2236, 2237, 2238, 2239, 2240, 2241, 2242, 2243, 2244, 2245, 2246, 2247, 2248, 2249, 2250, 2251, 2252, 2253, 2254, 2255, 2256, 2257, 2258, 2259, 2260, 2261, 2262, 2263, 2264, 2265, 2266, 2267, 2268, 2269, 2270, 2271, 2272, 2273, 2274, 2275, 2276, 2277, 2278, 2279, 2280, 2281, 2282, 2283, 2284, 2285, 2286, 2287, 2288, 2289, 2290, 2291, 2292, 2293, 2294, 2295, 2296, 2297, 2298, 2299, 2300, 2301, 2302, 2303, 2304, 2305, 2306, 2307, 2308, 2309, 2310, 2311, 2312, 2313, 2314, 2315, 2316, 2317, 2318, 2319, 2320, 2321, 2322, 2323, 2324, 2325, 2326, 2327, 2328, 2329, 2330, 2331, 2332, 2333, 2334, 2335, 2336, 2337, 2338, 2339, 2340, 2341, 2342, 2343, 2344, 2345, 2346, 2347, 2348, 2349, 2350, 2351, 2352, 2353, 2354, 2355, 2356, 2357, 2358, 2359, 2360, 2361, 2362, 2363, 2364, 2365, 2366, 2367, 2368, 2369, 2370, 2371, 2372, 2373, 2374, 2375, 2376, 2377, 2378, 2379, 2380, 2381, 2382, 2383, 2384, 2385, 2386, 2387, 2388, 2389, 2390, 2391, 2392, 2393, 2394, 2395, 2396, 2397, 2398, 2399, 2400, 2401, 2402, 2403, 2404, 2405, 2406, 2407, 2408, 2409, 2410, 2411, 2412, 2413, 2414, 2415, 2416, 2417, 2418, 2419, 2420, 2421, 2422, 2423, 2424, 2425, 2426, 2427, 2428, 2429, 2430, 2431, 2432, 2433, 2434, 2435, 2436, 2437, 2438, 2439, 2440, 2441, 2442, 2443, 2444, 2445, 2446, 2447, 2448, 2449, 2450, 2451, 2452, 2453, 2454, 2455, 2456, 2457, 2458, 2459, 2460, 2461, 2462, 2463, 2464, 2465, 2466, 2467, 2468, 2469, 2470, 2471, 2472, 2473, 2474, 2475, 2476, 2477, 2478, 2479, 2480, 2481, 2482, 2483, 2484, 2485, 2486, 2487, 2488, 2489, 2490, 2491, 2492, 2493, 2494, 2495, 2496, 2497, 2498, 2499, 2500, 2501, 2502, 2503, 2504, 2505, 2506, 2507, 2508, 2509, 2510, 2511, 2512, 2513, 2514, 2515, 2516, 2517, 2518, 2519, 2520, 2521, 2522, 2523, 2524, 2525, 2526, 2527, 2528, 2529, 2530, 2531, 2532, 2533, 2534, 2535, 2536, 2537, 2538, 2539, 2540, 2541, 2542, 2543, 2544, 2545, 2546, 2547, 2548, 2549, 2550, 2551, 2552, 2553, 2554, 2555, 2556, 2557, 2558, 2559, 2560, 2561, 2562, 2563, 2564, 2565, 2566, 2567, 2568, 2569, 2570, 2571, 2572, 2573, 2574, 2575, 2576, 2577, 2578, 2579, 2580, 2581, 2582, 2583, 2584, 2585, 2586, 2587, 2588, 2589, 2590, 2591, 2592, 2593, 2594, 2595, 2596, 2597, 2598, 2599, 2600, 2601, 2602, 2603, 2604, 2605, 2606, 2607, 2608, 2609, 2610, 2611, 2612, 2613, 2614, 2615, 2616, 2617, 2618, 2619, 2620, 2621, 2622, 2623, 2624, 2625, 2626, 2627, 2628, 2629, 2630, 2631, 2632, 2633, 2634, 2635, 2636, 2637, 2638, 2639, 2640, 2641, 2642, 2643, 2644, 2645, 2646, 2647, 2648, 2649, 2650, 2651, 2652, 2653, 2654, 2655, 2656, 2657, 2658, 2659, 2660, 2661, 2662, 2663, 2664, 2665, 2666, 2667, 2668, 2669, 2670, 2671, 2672, 2673, 2674, 2675, 2676, 2677, 2678, 2679, 2680, 2681, 2682, 2683, 2684, 2685, 2686, 2687, 2688, 2689, 2690, 2691, 2692, 2693, 2694, 2695, 2696, 2697, 2698, 2699, 2700, 2701, 2702, 2703, 2704, 2705, 2706, 2707, 2708, 2709, 2710, 2711, 2712, 2713, 2714, 2715, 2716, 2717, 2718, 2719, 2720, 2721, 2722, 2723, 2724, 2725, 2726, 2727, 2728, 2729, 2730, 2731, 2732, 2733, 2734, 2735, 2736, 2737, 2738, 2739, 2740, 2741, 2742, 2743, 2744, 2745, 2746, 2747, 2748, 2749, 2750, 2751, 2752, 2753, 2754, 2755, 2756, 2757, 2758, 2759, 2760, 2761, 2762, 2763, 2764, 2765, 2766, 2767, 2768, 2769, 2770, 2771, 2772, 2773, 2774, 2775, 2776, 2777, 2778, 2779, 2780, 2781, 2782, 2783, 2784, 2785, 2786, 2787, 2788, 2789, 2790, 2791, 2792, 2793, 2794, 2795, 2796, 2797, 2798, 2799, 2800, 2801, 2802, 2803, 2804, 2805, 2806, 2807, 2808, 2809, 2810, 2811, 2812, 2813, 2814, 2815, 2816, 2817, 2818, 2819, 2820, 2821, 2822, 2823, 2824, 2825, 2826, 2827, 2828, 2829, 2830, 2831, 2832, 2833, 2834, 2835, 2836, 2837, 2838, 2839, 2840, 2841, 2842, 2843, 2844, 2845, 2846, 2847, 2848, 2849, 2850, 2851, 2852, 2853, 2854, 2855, 2856, 2857, 2858, 2859, 2860, 2861, 2862, 2863, 2864, 2865, 2866, 2867, 2868, 2869, 2870, 2871, 2872, 2873, 2874, 2875, 2876, 2877, 2878, 2879, 2880, 2881, 2882, 2883, 2884, 2885, 2886, 2887, 2888, 2889, 2890, 2891, 2892, 2893, 2894, 2895, 2896, 2897, 2898, 2899, 2900, 2901, 2902, 2903, 2904, 2905, 2906, 2907, 2908, 2909, 2910, 2911, 2912, 2913, 2914, 2915, 2916, 2917, 2918, 2919, 2920, 2921, 2922, 2923, 2924, 2925, 2926, 2927, 2928, 2929, 2930, 2931, 2932, 2933, 2934, 2935, 2936, 2937, 2938, 2939, 2940, 2941, 2942, 2943, 2944, 2945, 2946, 2947, 2948, 2949, 2950, 2951, 2952, 2953, 2954, 2955, 2956, 2957, 2958, 2959, 2960, 2961, 2962, 2963, 2964, 2965, 2966, 2967, 2968, 2969, 2970, 2971, 2972, 2973, 2974, 2975, 2976, 2977, 2978, 2979, 2980, 2981, 2982, 2983, 2984, 2985, 2986, 2987, 2988, 2989, 2990, 2991, 2992, 2993, 2994, 2995, 2996, 2997, 2998, 2999, 3000, 3001, 3002, 3003, 3004, 3005, 3006, 3007, 3008, 3009, 3010, 3011, 3012, 3013, 3014, 3015, 3016, 3017, 3018, 3019, 3020, 3021, 3022, 3023, 3024, 3025, 3026, 3027, 3028, 3029, 3030, 3031, 3032, 3033, 3034, 3035, 3036, 3037, 3038, 3039, 3040, 3041, 3042, 3043, 3044, 3045, 3046, 3047, 3048, 3049, 3050, 3051, 3052, 3053, 3054, 3055, 3056, 3057, 3058, 3059, 3060, 3061, 3062, 3063, 3064, 3065, 3066, 3067, 3068, 3069, 3070, 3071, 3072, 3073, 3074, 3075, 3076, 3077, 3078, 3079, 3080, 3081, 3082, 3083, 3084, 3085, 3086, 3087, 3088, 3089, 3090, 3091, 3092, 3093, 3094, 3095, 3096, 3097, 3098, 3099, 3100, 3101, 3102, 3103, 3104, 3105, 3106, 3107, 3108, 3109, 3110, 3111, 3112, 3113, 3114, 3115, 3116, 3117, 3118, 3119, 3120, 3121, 3122, 3123, 3124, 3125, 3126, 3127, 3128, 3129, 3130, 3131, 3132, 3133, 3134, 3135, 3136, 3137, 3138, 3139, 3140, 3141, 3142, 3143, 3144, 3145, 3146, 3147, 3148, 3149, 3150, 3151, 3152, 3153, 3154, 3155, 3156, 3157, 3158, 3159, 3160, 3161, 3162, 3163, 3164, 3165, 3166, 3167, 3168, 3169, 3170, 3171, 3172, 3173, 3174, 3175, 3176, 3177, 3178, 3179, 3180, 3181, 3182, 3183, 3184, 3185, 3186, 3187, 3188, 3189, 3190, 3191, 3192, 3193, 3194, 3195, 3196, 3197, 3198, 3199, 3200, 3201, 3202, 3203, 3204, 3205, 3206, 3207, 3208, 3209, 3210, 3211, 3212, 3213, 3214, 3215, 3216, 3217, 3218, 3219, 3220, 3221, 3222, 3223, 3224, 3225, 3226, 3227, 3228, 3229, 3230, 3231, 3232, 3233, 3234, 3235, 3236, 3237, 3238, 3239, 3240, 3241, 3242, 3243, 3244, 3245, 3246, 3247, 3248, 3249, 3250, 3251, 3252, 3253, 3254, 3255, 3256, 3257, 3258, 3259, 3260, 3261, 3262, 3263, 3264, 3265, 3266, 3267, 3268, 3269, 3270, 3271, 3272, 3273, 3274, 3275, 3276, 3277, 3278, 3279, 3280, 3281, 3282, 3283, 3284, 3285, 3286, 3287, 3288, 3289, 3290, 3291, 3292, 3293, 3294, 3295, 3296, 3297, 3298, 3299, 3300, 3301, 3302, 3303, 3304, 3305, 3306, 3307, 3308, 3309, 3310, 3311, 3312, 3313, 3314, 3315, 3316, 3317, 3318, 3319, 3320, 3321, 3322, 3323, 3324, 3325, 3326, 3327, 3328, 3329, 3330, 3331, 3332, 3333, 3334, 3335, 3336, 3337, 3338, 3339, 3340, 3341, 3342, 3343, 3344, 3345, 3346, 3347, 3348, 3349, 3350, 3351, 3352, 3353, 3354, 3355, 3356, 3357, 3358, 3359, 3360, 3361, 3362, 3363, 3364, 3365, 3366, 3367, 3368, 3369, 3370, 3371, 3372, 3373, 3374, 3375, 3376, 3377, 3378, 3379, 3380, 3381, 3382, 3383, 3384, 3385, 3386, 3387, 3388, 3389, 3390, 3391, 3392, 3393, 3394, 3395, 3396, 3397, 3398, 3399, 3400, 3401, 3402, 3403, 3404, 3405, 3406, 3407, 3408, 3409, 3410, 3411, 3412, 3413, 3414, 3415, 3416, 3417, 3418, 3419, 3420, 3421, 3422, 3423, 3424, 3425, 3426, 3427, 3428, 3429, 3430, 3431, 3432, 3433, 3434, 3435, 3436, 3437, 3438, 3439, 3440, 3441, 3442, 3443, 3444, 3445, 3446, 3447, 3448, 3449, 3450, 3451, 3452, 3453, 3454, 3455, 3456, 3457, 3458, 3459, 3460, 3461, 3462, 3463, 3464, 3465, 3466, 3467, 3468, 3469, 3470, 3471, 3472, 3473, 3474, 3475, 3476, 3477, 3478, 3479, 3480, 3481, 3482, 3483, 3484, 3485, 3486, 3487, 3488, 3489, 3490, 3491, 3492, 3493, 3494, 3495, 3496, 3497, 3498, 3499, 3500, 3501, 3502, 3503, 3504, 3505, 3506, 3507, 3508, 3509, 3510, 3511, 3512, 3513, 3514, 3515, 3516, 3517, 3518, 3519, 3520, 3521, 3522, 3523, 3524, 3525, 3526, 3527, 3528, 3529, 3530, 3531, 3532, 3533, 3534, 3535, 3536, 3537, 3538, 3539, 3540, 3541, 3542, 3543, 3544, 3545, 3546, 3547, 3548, 3549, 3550, 3551, 3552, 3553, 3554, 3555, 3556, 3557, 3558, 3559, 3560, 3561, 3562, 3563, 3564, 3565, 3566, 3567, 3568, 3569, 3570, 3571, 3572, 3573, 3574, 3575, 3576, 3577, 3578, 3579, 3580, 3581, 3582, 3583, 3584, 3585, 3586, 3587, 3588, 3589, 3590, 3591, 3592, 3593, 3594, 3595, 3596, 3597, 3598, 3599, 3600, 3601, 3602, 3603, 3604, 3605, 3606, 3607, 3608, 3609, 3610, 3611, 3612, 3613, 3614, 3615, 3616, 3617, 3618, 3619, 3620, 3621, 3622, 3623, 3624, 3625, 3626, 3627, 3628, 3629, 3630, 3631, 3632, 3633, 3634, 3635, 3636, 3637, 3638, 3639, 3640, 3641, 3642, 3643, 3644, 3645, 3646, 3647, 3648, 3649, 3650, 3651, 3652, 3653, 3654, 3655, 3656, 3657, 3658, 3659, 3660, 3661, 3662, 3663, 3664, 3665, 3666, 3667, 3668, 3669, 3670, 3671, 3672, 3673, 3674, 3675, 3676, 3677, 3678, 3679, 3680, 3681, 3682, 3683, 3684, 3685, 3686, 3687, 3688, 3689, 3690, 3691, 3692, 3693, 3694, 3695, 3696, 3697, 3698, 3699, 3700, 3701, 3702, 3703, 3704, 3705, 3706, 3707, 3708, 3709, 3710, 3711, 3712, 3713, 3714, 3715, 3716, 3717, 3718, 3719, 3720, 3721, 3722, 3723, 3724, 3725, 3726, 3727, 3728, 3729, 3730, 3731, 3732, 3733, 3734, 3735, 3736, 3737, 3738, 3739, 3740, 3741, 3742, 3743, 3744, 3745, 3746, 3747, 3748, 3749, 3750, 3751, 3752, 3753, 3754, 3755, 3756, 3757, 3758, 3759, 3760, 3761, 3762, 3763, 3764, 3765, 3766, 3767, 3768, 3769, 3770, 3771, 3772, 3773, 3774, 3775, 3776, 3777, 3778, 3779, 3780, 3781, 3782, 3783, 3784, 3785, 3786, 3787, 3788, 3789, 3790, 3791, 3792, 3793, 3794, 3795, 3796, 3797, 3798, 3799, 3800, 3801, 3802, 3803, 3804, 3805, 3806, 3807, 3808, 3809, 3810, 3811, 3812, 3813, 3814, 3815, 3816, 3817, 3818, 3819, 3820, 3821, 3822, 3823, 3824, 3825, 3826, 3827, 3828, 3829, 3830, 3831, 3832, 3833, 3834, 3835, 3836, 3837, 3838, 3839, 3840, 3841, 3842, 3843, 3844, 3845, 3846, 3847, 3848, 3849, 3850, 3851, 3852, 3853, 3854, 3855, 3856, 3857, 3858, 3859, 3860, 3861, 3862, 3863, 3864, 3865, 3866, 3867, 3868, 3869, 3870, 3871, 3872, 3873, 3874, 3875, 3876, 3877, 3878, 3879, 3880, 3881, 3882, 3883, 3884, 3885, 3886, 3887, 3888, 3889, 3890, 3891, 3892, 3893, 3894, 3895, 3896, 3897, 3898, 3899, 3900, 3901, 3902, 3903, 3904, 3905, 3906, 3907, 3908, 3909, 3910, 3911, 3912, 3913, 3914, 3915, 3916, 3917, 3918, 3919, 3920, 3921, 3922, 3923, 3924, 3925, 3926, 3927, 3928, 3929, 3930, 3931, 3932, 3933, 3934, 3935, 3936, 3937, 3938, 3939, 3940, 3941, 3942, 3943, 3944, 3945, 3946, 3947, 3948, 3949, 3950, 3951, 3952, 3953, 3954, 3955, 3956, 3957, 3958, 3959, 3960, 3961, 3962, 3963, 3964, 3965, 3966, 3967, 3968, 3969, 3970, 3971, 3972, 3973, 3974, 3975, 3976, 3977, 3978, 3979, 3980, 3981, 3982, 3983, 3984, 3985, 3986, 3987, 3988, 3989, 3990, 3991, 3992, 3993, 3994, 3995, 3996, 3997, 3998, 3999, 4000, 4001, 4002, 4003, 4004, 4005, 4006, 4007, 4008, 4009, 4010, 4011, 4012, 4013, 4014, 4015, 4016, 4017, 4018, 4019, 4020, 4021, 4022, 4023, 4024, 4025, 4026, 4027, 4028, 4029, 4030, 4031, 4032, 4033, 4034, 4035, 4036, 4037, 4038, 4039, 4040, 4041, 4042, 4043, 4044, 4045, 4046, 4047, 4048, 4049, 4050, 4051, 4052, 4053, 4054, 4055, 4056, 4057, 4058, 4059, 4060, 4061, 4062, 4063, 4064, 4065, 4066, 4067, 4068, 4069, 4070, 4071, 4072, 4073, 4074, 4075, 4076, 4077, 4078, 4079, 4080, 4081, 4082, 4083, 4084, 4085, 4086, 4087, 4088, 4089, 4090, 4091, 4092, 4093, 4094, 4095, 4096, 4097, 4098, 4099, 4100, 4101, 4102, 4103, 4104, 4105, 4106, 4107, 4108, 4109, 4110, 4111, 4112, 4113, 4114, 4115, 4116, 4117, 4118, 4119, 4120, 4121, 4122, 4123, 4124, 4125, 4126, 4127, 4128, 4129, 4130, 4131, 4132, 4133, 4134, 4135, 4136, 4137, 4138, 4139, 4140, 4141, 4142, 4143, 4144, 4145, 4146, 4147, 4148, 4149, 4150, 4151, 4152, 4153, 4154, 4155, 4156, 4157, 4158, 4159, 4160, 4161, 4162, 4163, 4164, 4165, 4166, 4167, 4168, 4169, 4170, 4171, 4172, 4173, 4174, 4175, 4176, 4177, 4178, 4179, 4180, 4181, 4182, 4183, 4184, 4185, 4186, 4187, 4188, 4189, 4190, 4191, 4192, 4193, 4194, 4195, 4196, 4197, 4198, 4199, 4200, 4201, 4202, 4203, 4204, 4205, 4206, 4207, 4208, 4209, 4210, 4211, 4212, 4213, 4214, 4215, 4216, 4217, 4218, 4219, 4220, 4221, 4222, 4223, 4224, 4225, 4226, 4227, 4228, 4229, 4230, 4231, 4232, 4233, 4234, 4235, 4236, 4237, 4238, 4239, 4240, 4241, 4242, 4243, 4244, 4245, 4246, 4247, 4248, 4249, 4250, 4251, 4252, 4253, 4254, 4255, 4256, 4257, 4258, 4259, 4260, 4261, 4262, 4263, 4264, 4265, 4266, 4267, 4268, 4269, 4270, 4271, 4272, 4273, 4274, 4275, 4276, 4277, 4278, 4279, 4280, 4281, 4282, 4283, 4284, 4285, 4286, 4287, 4288, 4289, 4290, 4291, 4292, 4293, 4294, 4295, 4296, 4297, 4298, 4299, 4300, 4301, 4302, 4303, 4304, 4305, 4306, 4307, 4308, 4309, 4310, 4311, 4312, 4313, 4314, 4315, 4316, 4317, 4318, 4319, 4320, 4321, 4322, 4323, 4324, 4325, 4326, 4327, 4328, 4329, 4330, 4331, 4332, 4333, 4334, 4335, 4336, 4337, 4338, 4339, 4340, 4341, 4342, 4343, 4344, 4345, 4346, 4347, 4348, 4349, 4350, 4351, 4352, 4353, 4354, 4355, 4356, 4357, 4358, 4359, 4360, 4361, 4362, 4363, 4364, 4365, 4366, 4367, 4368, 4369, 4370, 4371, 4372, 4373, 4374, 4375, 4376, 4377, 4378, 4379, 4380, 4381, 4382, 4383, 4384, 4385, 4386, 4387, 4388, 4389, 4390, 4391, 4392, 4393, 4394, 4395, 4396, 4397, 4398, 4399, 4400, 4401, 4402, 4403, 4404, 4405, 4406, 4407, 4408, 4409, 4410, 4411, 4412, 4413, 4414, 4415, 4416, 4417, 4418, 4419, 4420, 4421, 4422, 4423, 4424, 4425, 4426, 4427, 4428, 4429, 4430, 4431, 4432, 4433, 4434, 4435, 4436, 4437, 4438, 4439, 4440, 4441, 4442, 4443, 4444, 4445, 4446, 4447, 4448, 4449, 4450, 4451, 4452, 4453, 4454, 4455, 4456, 4457, 4458, 4459, 4460, 4461, 4462, 4463, 4464, 4465, 4466, 4467, 4468, 4469, 4470, 4471, 4472, 4473, 4474, 4475, 4476, 4477, 4478, 4479, 4480, 4481, 4482, 4483, 4484, 4485, 4486, 4487, 4488, 4489, 4490, 4491, 4492, 4493, 4494, 4495, 4496, 4497, 4498, 4499, 4500, 4501, 4502, 4503, 4504, 4505, 4506, 4507, 4508, 4509, 4510, 4511, 4512, 4513, 4514, 4515, 4516, 4517, 4518, 4519, 4520, 4521, 4522, 4523, 4524, 4525, 4526, 4527, 4528, 4529, 4530, 4531, 4532, 4533, 4534, 4535, 4536, 4537, 4538, 4539, 4540, 4541, 4542, 4543, 4544, 4545, 4546, 4547, 4548, 4549, 4550, 4551, 4552, 4553, 4554, 4555, 4556, 4557, 4558, 4559, 4560, 4561, 4562, 4563, 4564, 4565, 4566, 4567, 4568, 4569, 4570, 4571, 4572, 4573, 4574, 4575, 4576, 4577, 4578, 4579, 4580, 4581, 4582, 4583, 4584, 4585, 4586, 4587, 4588, 4589, 4590, 4591, 4592, 4593, 4594, 4595, 4596, 4597, 4598, 4599, 4600, 4601, 4602, 4603, 4604, 4605, 4606, 4607, 4608, 4609, 4610, 4611, 4612, 4613, 4614, 4615, 4616, 4617, 4618, 4619, 4620, 4621, 4622, 4623, 4624, 4625, 4626, 4627, 4628, 4629, 4630, 4631, 4632, 4633, 4634, 4635, 4636, 4637, 4638, 4639, 4640, 4641, 4642, 4643, 4644, 4645, 4646, 4647, 4648, 4649, 4650, 4651, 4652, 4653, 4654, 4655, 4656, 4657, 4658, 4659, 4660, 4661, 4662, 4663, 4664, 4665, 4666, 4667, 4668, 4669, 4670, 4671, 4672, 4673, 4674, 4675, 4676, 4677, 4678, 4679, 4680, 4681, 4682, 4683, 4684, 4685, 4686, 4687, 4688, 4689, 4690, 4691, 4692, 4693, 4694, 4695, 4696, 4697, 4698, 4699, 4700, 4701, 4702, 4703, 4704, 4705, 4706, 4707, 4708, 4709, 4710, 4711, 4712, 4713, 4714, 4715, 4716, 4717, 4718, 4719, 4720, 4721, 4722, 4723, 4724, 4725, 4726, 4727, 4728, 4729, 4730, 4731, 4732, 4733, 4734, 4735, 4736, 4737, 4738, 4739, 4740, 4741, 4742, 4743, 4744, 4745, 4746, 4747, 4748, 4749, 4750, 4751, 4752, 4753, 4754, 4755, 4756, 4757, 4758, 4759, 4760, 4761, 4762, 4763, 4764, 4765, 4766, 4767, 4768, 4769, 4770, 4771, 4772, 4773, 4774, 4775, 4776, 4777, 4778, 4779, 4780, 4781, 4782, 4783, 4784, 4785, 4786, 4787, 4788, 4789, 4790, 4791, 4792, 4793, 4794, 4795, 4796, 4797, 4798, 4799, 4800, 4801, 4802, 4803, 4804, 4805, 4806, 4807, 4808, 4809, 4810, 4811, 4812, 4813, 4814, 4815, 4816, 4817, 4818, 4819, 4820, 4821, 4822, 4823, 4824, 4825, 4826, 4827, 4828, 4829, 4830, 4831, 4832, 4833, 4834, 4835, 4836, 4837, 4838, 4839, 4840, 4841, 4842, 4843, 4844, 4845, 4846, 4847, 4848, 4849, 4850, 4851, 4852, 4853, 4854, 4855, 4856, 4857, 4858, 4859, 4860, 4861, 4862, 4863, 4864, 4865, 4866, 4867, 4868, 4869, 4870, 4871, 4872, 4873, 4874, 4875, 4876, 4877, 4878, 4879, 4880, 4881, 4882, 4883, 4884, 4885, 4886, 4887, 4888, 4889, 4890, 4891, 4892, 4893, 4894, 4895, 4896, 4897, 4898, 4899, 4900, 4901, 4902, 4903, 4904, 4905, 4906, 4907, 4908, 4909, 4910, 4911, 4912, 4913, 4914, 4915, 4916, 4917, 4918, 4919, 4920, 4921, 4922, 4923, 4924, 4925, 4926, 4927, 4928, 4929, 4930, 4931, 4932, 4933, 4934, 4935, 4936, 4937, 4938, 4939, 4940, 4941, 4942, 4943, 4944, 4945, 4946, 4947, 4948, 4949, 4950, 4951, 4952, 4953, 4954, 4955, 4956, 4957, 4958, 4959, 4960, 4961, 4962, 4963, 4964, 4965, 4966, 4967, 4968, 4969, 4970, 4971, 4972, 4973, 4974, 4975, 4976, 4977, 4978, 4979, 4980, 4981, 4982, 4983, 4984, 4985, 4986, 4987, 4988, 4989, 4990, 4991, 4992, 4993, 4994, 4995, 4996, 4997, 4998, 4999, 5000, 5001, 5002, 5003, 5004, 5005, 5006, 5007, 5008, 5009, 5010, 5011, 5012, 5013, 5014, 5015, 5016, 5017, 5018, 5019, 5020, 5021, 5022, 5023, 5024, 5025, 5026, 5027, 5028, 5029, 5030, 5031, 5032, 5033, 5034, 5035, 5036, 5037, 5038, 5039, 5040, 5041, 5042, 5043, 5044, 5045, 5046, 5047, 5048, 5049, 5050, 5051, 5052, 5053, 5054, 5055, 5056, 5057, 5058, 5059, 5060, 5061, 5062, 5063, 5064, 5065, 5066, 5067, 5068, 5069, 5070, 5071, 5072, 5073, 5074, 5075, 5076, 5077, 5078, 5079, 5080, 5081, 5082, 5083, 5084, 5085, 5086, 5087, 5088, 5089, 5090, 5091, 5092, 5093, 5094, 5095, 5096, 5097, 5098, 5099, 5100, 5101, 5102, 5103, 5104, 5105, 5106, 5107, 5108, 5109, 5110, 5111, 5112, 5113, 5114, 5115, 5116, 5117, 5118, 5119, 5120, 5121, 5122, 5123, 5124, 5125, 5126, 5127, 5128, 5129, 5130, 5131, 5132, 5133, 5134, 5135, 5136, 5137, 5138, 5139, 5140, 5141, 5142, 5143, 5144, 5145, 5146, 5147, 5148, 5149, 5150, 5151, 5152, 5153, 5154, 5155, 5156, 5157, 5158, 5159, 5160, 5161, 5162, 5163, 5164, 5165, 5166, 5167, 5168, 5169, 5170, 5171, 5172, 5173, 5174, 5175, 5176, 5177, 5178, 5179, 5180, 5181, 5182, 5183, 5184, 5185, 5186, 5187, 5188, 5189, 5190, 5191, 5192, 5193, 5194, 5195, 5196, 5197, 5198, 5199, 5200, 5201, 5202, 5203, 5204, 5205, 5206, 5207, 5208, 5209, 5210, 5211, 5212, 5213, 5214, 5215, 5216, 5217, 5218, 5219, 5220, 5221, 5222, 5223, 5224, 5225, 5226, 5227, 5228, 5229, 5230, 5231, 5232, 5233, 5234, 5235, 5236, 5237, 5238, 5239, 5240, 5241, 5242, 5243, 5244, 5245, 5246, 5247, 5248, 5249, 5250, 5251, 5252, 5253, 5254, 5255, 5256, 5257, 5258, 5259, 5260, 5261, 5262, 5263, 5264, 5265, 5266, 5267, 5268, 5269, 5270, 5271, 
distro:
88, 88, 88, 88, 88, 88, 88, 88, 88, 88, 88, 88, 88, 88, 88, 88, 88, 88, 88, 88, 88, 88, 88, 88, 88, 88, 88, 88, 88, 88, 88, 88, 317, 298, 298, 317, 317, 298, 298, 317, 317, 298, 298, 317, 317, 298, 298, 317, 317, 298, 298, 317, 317, 298, 298, 317, 317, 298, 298, 317, 317, 298, 298, 317, 317, 298, 298, 317, 317, 298, 298, 317, 317, 298, 298, 317, 314, 295, 295, 314, 314, 295, 295, 314, 314, 295, 295, 314, 314, 295, 295, 314, 314, 295, 295, 314, 314, 295, 295, 314, 314, 295, 295, 314, 314, 295, 295, 314, 314, 295, 295, 314, 314, 295, 295, 314, 314, 295, 295, 314, 314, 295, 295, 314, 314, 295, 295, 314, 314, 295, 295, 314, 314, 295, 295, 314, 314, 295, 295, 314, 314, 295, 295, 314, 314, 295, 295, 314, 314, 295, 295, 314, 314, 295, 295, 314, 314, 295, 295, 314, 314, 295, 295, 314, 314, 295, 295, 314, 314, 295, 295, 314, 314, 295, 295, 314, 314, 295, 295, 314, 314, 295, 295, 314, 314, 295, 295, 314, 314, 295, 295, 314, 314, 295, 295, 314, 314, 295, 295, 314, 314, 295, 295, 314, 314, 295, 295, 314, 314, 295, 295, 314, 314, 295, 295, 314, 314, 295, 295, 314, 314, 295, 295, 314, 314, 295, 295, 314, 88, 88, 88, 88, 88, 88, 88, 88, 314, 295, 295, 314, 314, 295, 295, 314, 314, 295, 295, 314, 314, 295, 295, 314, 314, 295, 295, 314, 314, 295, 295, 314, 314, 295, 295, 314, 314, 295, 295, 314, 314, 295, 295, 314, 314, 295, 295, 314, 314, 295, 295, 314, 314, 295, 295, 314, 314, 295, 295, 314, 314, 295, 295, 314, 314, 295, 295, 314, 314, 295, 295, 314, 314, 295, 295, 314, 314, 295, 295, 314, 314, 295, 295, 314, 88, 88, 88, 88, 314, 295, 295, 314, 314, 295, 295, 314, 314, 295, 295, 314, 314, 295, 295, 314, 314, 295, 295, 314, 314, 295, 295, 314, 314, 295, 295, 314, 314, 295, 295, 314, 314, 295, 295, 314, 314, 295, 295, 314, 314, 295, 295, 314, 314, 295, 295, 314, 314, 295, 295, 314, 314, 295, 295, 314, 314, 295, 295, 314, 314, 295, 295, 314, 314, 295, 295, 314, 314, 295, 295, 314, 314, 295, 295, 314, 314, 295, 295, 314, 314, 295, 295, 314, 314, 295, 295, 314, 314, 295, 295, 314, 314, 295, 295, 314, 314, 295, 295, 314, 314, 295, 295, 314, 314, 295, 295, 314, 314, 295, 295, 314, 314, 295, 295, 314, 314, 295, 295, 314, 314, 295, 295, 314, 314, 295, 295, 314, 314, 295, 295, 314, 314, 295, 295, 314, 314, 295, 295, 314, 314, 295, 295, 314, 314, 295, 295, 314, 314, 295, 295, 314, 314, 295, 295, 314, 314, 295, 295, 314, 314, 295, 295, 314, 314, 295, 295, 314, 314, 295, 295, 314, 314, 295, 295, 314, 314, 295, 295, 314, 314, 295, 295, 314, 314, 295, 295, 314, 314, 295, 295, 314, 314, 295, 295, 314, 314, 295, 295, 314, 314, 295, 295, 314, 314, 295, 295, 314, 314, 295, 295, 314, 314, 295, 295, 314, 314, 295, 295, 314, 314, 295, 295, 314, 314, 295, 295, 314, 314, 295, 295, 314, 314, 295, 295, 314, 314, 295, 295, 314, 314, 295, 295, 314, 314, 295, 295, 314, 314, 295, 295, 314, 314, 314, 295, 314, 314, 314, 295, 314, 314, 314, 295, 314, 314, 314, 295, 314, 314, 314, 295, 314, 314, 314, 295, 314, 314, 295, 295, 314, 314, 314, 295, 314, 314, 314, 295, 314, 314, 314, 295, 314, 314, 314, 295, 314, 314, 314, 295, 314, 314, 314, 295, 314, 314, 314, 295, 314, 314, 295, 295, 314, 314, 295, 295, 314, 314, 295, 295, 314, 314, 295, 295, 314, 314, 295, 295, 314, 314, 295, 295, 314, 314, 295, 295, 314, 314, 295, 295, 314, 314, 295, 295, 314, 314, 295, 295, 314, 314, 295, 295, 314, 314, 295, 295, 314, 314, 295, 295, 314, 314, 295, 295, 314, 314, 295, 295, 314, 314, 295, 295, 314, 314, 295, 295, 314, 314, 295, 295, 314, 314, 295, 295, 314, 314, 295, 295, 314, 314, 295, 295, 314, 314, 295, 295, 314, 314, 295, 295, 314, 314, 295, 295, 314, 314, 295, 295, 314, 314, 295, 295, 314, 314, 295, 295, 314, 314, 295, 295, 314, 314, 88, 314, 314, 314, 88, 314, 314, 314, 88, 314, 314, 314, 88, 314, 314, 314, 88, 314, 314, 314, 314, 295, 314, 314, 314, 295, 314, 314, 295, 295, 314, 314, 295, 295, 314, 314, 295, 295, 314, 314, 295, 295, 314, 314, 295, 295, 314, 314, 295, 295, 314, 314, 295, 295, 314, 314, 295, 295, 314, 314, 295, 295, 314, 314, 295, 295, 314, 88, 88, 88, 88, 88, 88, 88, 88, 314, 295, 295, 314, 314, 295, 295, 314, 314, 295, 295, 314, 314, 295, 295, 314, 314, 295, 295, 314, 314, 295, 295, 314, 314, 295, 295, 314, 314, 295, 295, 314, 314, 295, 295, 314, 314, 88, 314, 314, 314, 88, 314, 314, 314, 88, 314, 314, 314, 88, 314, 314, 314, 88, 314, 314, 314, 314, 295, 314, 314, 314, 295, 314, 314, 314, 295, 314, 314, 88, 314, 314, 314, 88, 314, 314, 314, 88, 314, 314, 314, 88, 314, 314, 314, 88, 314, 314, 314, 88, 314, 314, 314, 295, 295, 314, 314, 295, 295, 314, 314, 295, 295, 314, 314, 295, 295, 314, 314, 295, 295, 314, 314, 295, 295, 314, 314, 295, 295, 314, 314, 88, 314, 314, 314, 295, 295, 314, 314, 295, 295, 314, 314, 295, 295, 314, 314, 295, 295, 314, 314, 295, 295, 314, 314, 295, 295, 314, 314, 295, 295, 314, 314, 88, 314, 314, 314, 88, 314, 314, 314, 88, 314, 314, 314, 88, 314, 314, 314, 88, 314, 314, 314, 88, 314, 314, 314, 88, 314, 314, 314, 88, 314, 314, 314, 88, 314, 314, 314, 88, 314, 314, 314, 88, 314, 314, 314, 88, 314, 314, 314, 88, 314, 314, 314, 88, 314, 314, 88, 88, 88, 88, 88, 88, 88, 88, 314, 295, 295, 314, 314, 295, 295, 314, 314, 295, 295, 314, 314, 295, 295, 314, 314, 295, 295, 314, 314, 295, 295, 314, 314, 295, 295, 314, 314, 295, 295, 314, 314, 295, 295, 314, 314, 295, 295, 314, 314, 295, 295, 314, 314, 295, 295, 314, 314, 88, 314, 314, 314, 88, 314, 314, 314, 88, 314, 314, 314, 88, 314, 314, 314, 88, 314, 314, 314, 88, 314, 314, 314, 295, 295, 314, 88, 88, 88, 88, 314, 295, 295, 314, 314, 314, 295, 314, 314, 314, 295, 314, 314, 314, 295, 314, 314, 314, 295, 314, 314, 88, 314, 314, 314, 314, 295, 314, 314, 295, 295, 314, 314, 295, 295, 314, 314, 295, 295, 314, 314, 295, 295, 314, 314, 295, 295, 314, 314, 295, 295, 314, 314, 88, 314, 314, 314, 88, 314, 314, 314, 88, 314, 314, 314, 88, 314, 314, 314, 88, 314, 314, 314, 88, 314, 314, 314, 88, 314, 314, 314, 314, 295, 314, 314, 295, 295, 314, 314, 295, 295, 314, 314, 88, 314, 314, 314, 88, 314, 314, 314, 88, 314, 314, 314, 88, 314, 314, 314, 88, 314, 314, 314, 88, 314, 314, 314, 295, 295, 314, 314, 295, 295, 314, 314, 295, 295, 314, 314, 295, 295, 314, 314, 295, 295, 314, 314, 295, 295, 314, 314, 295, 295, 314, 314, 88, 314, 314, 314, 88, 314, 314, 314, 88, 314, 314, 314, 88, 314, 314, 314, 88, 314, 314, 314, 88, 314, 314, 314, 88, 314, 314, 314, 295, 295, 314, 314, 295, 295, 314, 88, 88, 88, 88, 314, 295, 295, 314, 314, 295, 295, 314, 314, 295, 295, 314, 314, 314, 295, 314, 314, 88, 314, 314, 314, 88, 314, 314, 314, 314, 295, 314, 314, 295, 295, 314, 314, 295, 295, 314, 314, 295, 295, 314, 314, 295, 295, 314, 314, 88, 314, 314, 314, 88, 314, 314, 314, 88, 314, 314, 314, 88, 314, 314, 314, 88, 314, 314, 314, 88, 314, 314, 314, 88, 314, 314, 314, 88, 314, 314, 314, 88, 314, 314, 314, 88, 314, 314, 314, 88, 314, 314, 314, 88, 314, 314, 314, 88, 314, 314, 314, 88, 314, 314, 314, 88, 314, 314, 314, 88, 314, 314, 314, 88, 314, 314, 314, 88, 314, 314, 314, 88, 314, 314, 314, 88, 314, 314, 314, 88, 314, 314, 314, 295, 295, 314, 314, 295, 295, 314, 314, 295, 295, 314, 314, 295, 295, 314, 314, 295, 295, 314, 314, 295, 295, 314, 88, 88, 88, 88, 314, 295, 295, 314, 314, 295, 295, 314, 314, 295, 295, 314, 314, 295, 295, 314, 314, 295, 295, 314, 314, 295, 295, 314, 314, 295, 295, 314, 314, 88, 314, 314, 314, 88, 314, 314, 314, 88, 314, 314, 314, 88, 314, 314, 314, 314, 314, 314, 314, 314, 295, 314, 314, 314, 295, 314, 314, 88, 314, 314, 314, 88, 314, 314, 314, 88, 314, 314, 314, 88, 314, 314, 314, 88, 314, 314, 314, 88, 314, 314, 314, 88, 314, 314, 314, 88, 314, 314, 314, 88, 314, 314, 314, 88, 314, 314, 314, 88, 314, 314, 314, 88, 314, 314, 314, 88, 314, 314, 314, 88, 314, 314, 314, 88, 314, 314, 314, 88, 314, 314, 314, 88, 314, 314, 314, 88, 314, 314, 314, 88, 314, 314, 314, 88, 314, 314, 314, 88, 314, 314, 314, 295, 295, 314, 314, 295, 295, 314, 314, 295, 295, 314, 314, 295, 295, 314, 314, 314, 295, 314, 314, 314, 295, 314, 314, 314, 295, 314, 88, 88, 88, 88, 314, 295, 295, 314, 314, 295, 295, 314, 314, 295, 295, 314, 314, 295, 295, 314, 314, 295, 295, 314, 314, 295, 295, 314, 314, 295, 295, 314, 314, 295, 295, 314, 314, 295, 295, 314, 314, 295, 295, 314, 314, 295, 295, 314, 314, 295, 295, 314, 314, 295, 295, 314, 314, 88, 314, 314, 314, 88, 314, 314, 314, 88, 314, 314, 314, 88, 314, 314, 314, 88, 314, 314, 314, 314, 295, 314, 314, 314, 295, 314, 314, 295, 295, 314, 314, 295, 295, 314, 314, 314, 295, 314, 314, 88, 314, 314, 314, 88, 314, 314, 314, 88, 314, 314, 314, 88, 314, 314, 314, 295, 295, 314, 314, 295, 295, 314, 314, 295, 295, 314, 314, 295, 295, 314, 314, 295, 295, 314, 314, 295, 295, 314, 314, 295, 295, 314, 314, 88, 314, 314, 314, 88, 314, 314, 314, 314, 295, 314, 314, 314, 295, 314, 314, 314, 295, 314, 314, 314, 295, 314, 314, 295, 295, 314, 314, 88, 314, 314, 314, 88, 314, 314, 314, 88, 314, 314, 314, 88, 314, 314, 314, 88, 314, 314, 314, 295, 295, 314, 314, 295, 295, 314, 314, 88, 314, 314, 314, 88, 314, 314, 314, 88, 314, 314, 314, 88, 314, 314, 314, 88, 314, 314, 314, 88, 314, 314, 314, 88, 314, 314, 314, 314, 295, 314, 314, 88, 314, 314, 314, 88, 314, 314, 314, 88, 314, 314, 314, 88, 314, 314, 314, 88, 314, 314, 314, 88, 314, 314, 314, 295, 295, 314, 314, 295, 295, 314, 314, 295, 295, 314, 314, 295, 295, 314, 314, 295, 295, 314, 314, 295, 295, 314, 314, 295, 295, 314, 314, 314, 295, 314, 314, 295, 295, 314, 314, 295, 295, 314, 314, 295, 295, 314, 314, 295, 295, 314, 314, 295, 295, 314, 314, 295, 295, 314, 314, 88, 314, 314, 314, 88, 314, 314, 314, 88, 314, 314, 314, 88, 314, 314, 314, 88, 314, 314, 314, 88, 314, 314, 314, 88, 314, 314, 314, 88, 314, 314, 314, 88, 314, 314, 314, 88, 314, 314, 314, 88, 314, 314, 314, 88, 314, 314, 314, 88, 314, 314, 314, 88, 314, 314, 314, 295, 295, 314, 314, 295, 295, 314, 314, 314, 295, 314, 314, 314, 295, 314, 314, 314, 295, 314, 314, 314, 295, 314, 314, 88, 314, 314, 314, 295, 295, 314, 314, 295, 295, 314, 314, 295, 295, 314, 88, 88, 88, 88, 314, 295, 295, 314, 314, 295, 295, 314, 314, 295, 295, 314, 314, 295, 295, 314, 314, 295, 295, 314, 314, 295, 295, 314, 314, 295, 295, 314, 314, 295, 295, 314, 314, 295, 295, 314, 314, 88, 314, 314, 314, 88, 314, 314, 314, 314, 295, 314, 314, 314, 295, 314, 314, 314, 295, 314, 314, 295, 295, 314, 314, 295, 295, 314, 314, 295, 295, 314, 314, 88, 314, 314, 314, 88, 314, 314, 314, 88, 314, 314, 314, 88, 314, 314, 314, 88, 314, 314, 314, 88, 314, 314, 314, 88, 314, 314, 314, 88, 314, 314, 314, 88, 314, 314, 314, 88, 314, 314, 314, 88, 314, 314, 314, 88, 314, 314, 314, 88, 314, 314, 314, 88, 314, 314, 314, 88, 314, 314, 314, 88, 314, 314, 314, 88, 314, 314, 314, 88, 314, 314, 314, 88, 314, 314, 314, 88, 314, 314, 314, 88, 314, 314, 314, 88, 314, 314, 314, 88, 314, 314, 314, 88, 314, 314, 314, 88, 314, 314, 314, 88, 314, 314, 314, 88, 314, 314, 314, 88, 314, 314, 314, 295, 295, 314, 314, 295, 295, 314, 314, 295, 295, 314, 314, 295, 295, 314, 314, 295, 295, 314, 314, 295, 295, 314, 314, 314, 295, 314, 314, 295, 295, 314, 314, 295, 295, 314, 314, 295, 295, 314, 88, 88, 88, 88, 88, 88, 88, 88, 314, 295, 295, 314, 314, 295, 295, 314, 314, 295, 295, 314, 314, 295, 295, 314, 314, 295, 295, 314, 314, 295, 295, 314, 314, 295, 295, 314, 314, 295, 295, 314, 314, 295, 295, 314, 314, 88, 314, 314, 314, 88, 314, 314, 314, 88, 314, 314, 314, 88, 314, 314, 314, 88, 314, 314, 314, 88, 314, 314, 314, 88, 314, 314, 314, 88, 314, 314, 314, 88, 314, 314, 314, 88, 314, 314, 314, 88, 314, 314, 314, 88, 314, 314, 314, 88, 314, 314, 314, 88, 314, 314, 314, 88, 314, 314, 314, 88, 314, 314, 314, 88, 314, 314, 314, 88, 314, 314, 314, 88, 314, 314, 314, 88, 314, 314, 314, 88, 314, 314, 314, 295, 295, 314, 314, 295, 295, 314, 314, 295, 295, 314, 314, 295, 295, 314, 314, 295, 295, 314, 314, 295, 295, 314, 314, 295, 295, 314, 314, 295, 295, 314, 314, 295, 295, 314, 314, 295, 295, 314, 88, 88, 88, 88, 314, 295, 295, 314, 314, 295, 295, 314, 314, 295, 295, 314, 314, 295, 295, 314, 314, 295, 295, 314, 314, 295, 295, 314, 314, 295, 295, 314, 314, 295, 295, 314, 314, 295, 295, 314, 314, 295, 295, 314, 314, 88, 314, 314, 314, 314, 295, 314, 314, 314, 295, 314, 314, 314, 295, 314, 314, 314, 295, 314, 314, 295, 295, 314, 314, 295, 295, 314, 314, 88, 314, 314, 314, 88, 314, 314, 314, 88, 314, 314, 314, 88, 314, 314, 314, 88, 314, 314, 314, 88, 314, 314, 314, 88, 314, 314, 314, 88, 314, 314, 314, 88, 314, 314, 314, 88, 314, 314, 314, 88, 314, 314, 314, 88, 314, 314, 314, 88, 314, 314, 314, 88, 314, 314, 314, 295, 295, 314, 314, 295, 295, 314, 314, 295, 295, 314, 314, 295, 295, 314, 314, 295, 295, 314, 314, 295, 295, 314, 314, 295, 295, 314, 314, 88, 314, 314, 314, 88, 314, 314, 314, 314, 295, 314, 314, 314, 295, 314, 314, 295, 295, 314, 314, 295, 295, 314, 314, 295, 295, 314, 314, 88, 314, 314, 314, 88, 314, 314, 314, 88, 314, 314, 314, 88, 314, 314, 314, 88, 314, 314, 314, 88, 314, 314, 314, 88, 314, 314, 314, 88, 314, 314, 314, 88, 314, 314, 314, 88, 314, 314, 314, 88, 314, 314, 314, 88, 314, 314, 314, 88, 314, 314, 314, 88, 314, 314, 314, 295, 295, 314, 314, 295, 295, 314, 314, 295, 295, 314, 314, 295, 295, 314, 314, 295, 295, 314, 314, 88, 314, 314, 314, 88, 314, 314, 314, 88, 314, 314, 314, 314, 295, 314, 314, 295, 295, 314, 314, 295, 295, 314, 314, 295, 295, 314, 314, 295, 295, 314, 314, 295, 295, 314, 314, 88, 314, 314, 314, 88, 314, 314, 314, 88, 314, 314, 314, 88, 314, 314, 314, 88, 314, 314, 314, 88, 314, 314, 314, 88, 314, 314, 314, 295, 295, 314, 314, 295, 295, 314, 314, 295, 295, 314, 88, 88, 88, 88, 314, 295, 295, 314, 314, 295, 295, 314, 314, 88, 314, 314, 314, 88, 314, 314, 314, 88, 314, 314, 314, 295, 295, 314, 314, 295, 295, 314, 314, 295, 295, 314, 314, 295, 295, 314, 314, 295, 295, 314, 314, 314, 295, 314, 314, 314, 295, 314, 314, 314, 295, 314, 314, 88, 314, 314, 314, 88, 314, 314, 314, 88, 314, 314, 314, 88, 314, 314, 314, 88, 314, 314, 314, 88, 314, 314, 314, 88, 314, 314, 314, 295, 295, 314, 314, 295, 295, 314, 314, 295, 295, 314, 314, 295, 295, 314, 314, 88, 314, 314, 314, 88, 314, 314, 314, 88, 314, 314, 314, 88, 314, 314, 314, 295, 295, 314, 314, 295, 295, 314, 314, 295, 295, 314, 314, 295, 295, 314, 314, 295, 295, 314, 314, 295, 295, 314, 314, 295, 295, 314, 314, 88, 314, 314, 314, 88, 314, 314, 314, 88, 314, 314, 314, 88, 314, 314, 314, 314, 295, 314, 314, 295, 295, 314, 314, 295, 295, 314, 314, 295, 295, 314, 314, 295, 295, 314, 314, 295, 295, 314, 314, 88, 314, 314, 314, 88, 314, 314, 314, 88, 314, 314, 314, 88, 314, 314, 314, 295, 295, 314, 314, 295, 295, 314, 314, 295, 295, 314, 314, 295, 295, 314, 314, 295, 295, 314, 314, 295, 295, 314, 314, 295, 295, 314, 314, 88, 314, 314, 314, 88, 314, 314, 314, 88, 314, 314, 314, 295, 295, 314, 314, 295, 295, 314, 314, 295, 295, 314, 314, 295, 295, 314, 314, 88, 314, 314, 314, 88, 314, 314, 314, 88, 314, 314, 314, 88, 314, 314, 314, 88, 314, 314, 314, 88, 314, 314, 314, 88, 314, 314, 314, 295, 295, 314, 314, 295, 295, 314, 314, 295, 295, 314, 314, 295, 295, 314, 314, 295, 295, 314, 314, 295, 295, 314, 314, 295, 295, 314, 314, 88, 314, 314, 314, 88, 314, 314, 314, 314, 295, 314, 314, 295, 295, 314, 314, 295, 295, 314, 314, 295, 295, 314, 314, 295, 295, 314, 314, 88, 314, 314, 314, 88, 314, 314, 314, 88, 314, 314, 314, 88, 314, 314, 314, 88, 314, 314, 314, 88, 314, 314, 314, 88, 314, 314, 314, 295, 295, 314, 314, 295, 295, 314, 314, 295, 295, 314, 314, 295, 295, 314, 314, 295, 295, 314, 314, 295, 295, 314, 314, 314, 295, 314, 314, 295, 295, 314, 314, 295, 295, 314, 314, 295, 295, 314, 314, 295, 295, 314, 314, 295, 295, 314, 314, 295, 295, 314, 88, 88, 88, 88, 314, 295, 295, 314, 314, 295, 295, 314, 314, 295, 295, 314, 314, 295, 295, 314, 314, 295, 295, 314, 314, 295, 295, 314, 314, 295, 295, 314, 314, 295, 295, 314, 314, 295, 295, 314, 314, 295, 295, 314, 314, 295, 295, 314, 314, 295, 295, 314, 314, 295, 295, 314, 314, 295, 295, 314, 314, 88, 314, 314, 314, 88, 314, 314, 314, 88, 314, 314, 314, 88, 314, 314, 314, 88, 314, 314, 314, 88, 314, 314, 314, 88, 314, 314, 314, 88, 314, 314, 314, 88, 314, 314, 314, 88, 314, 314, 314, 88, 314, 314, 314, 88, 314, 314, 314, 88, 314, 314, 314, 88, 314, 314, 314, 88, 314, 314, 314, 88, 314, 314, 314, 88, 314, 314, 314, 88, 314, 314, 314, 88, 314, 314, 314, 88, 314, 314, 314, 88, 314, 314, 314, 295, 295, 314, 314, 295, 295, 314, 314, 295, 295, 314, 314, 295, 295, 314, 314, 295, 295, 314, 314, 295, 295, 314, 314, 295, 295, 314, 314, 295, 295, 314, 88, 88, 88, 88, 88, 88, 88, 88, 314, 295, 295, 314, 314, 295, 295, 314, 314, 295, 295, 314, 314, 295, 295, 314, 314, 295, 295, 314, 314, 295, 295, 314, 314, 295, 295, 314, 314, 295, 295, 314, 314, 295, 295, 314, 314, 295, 295, 314, 314, 295, 295, 314, 314, 88, 314, 314, 314, 314, 295, 314, 314, 314, 295, 314, 314, 314, 295, 314, 314, 295, 295, 314, 314, 295, 295, 314, 314, 295, 295, 314, 314, 295, 295, 314, 314, 314, 295, 314, 314, 314, 295, 314, 314, 88, 314, 314, 314, 88, 314, 314, 314, 88, 314, 314, 314, 88, 314, 314, 314, 295, 295, 314, 314, 295, 295, 314, 314, 295, 295, 314, 314, 295, 295, 314, 314, 295, 295, 314, 314, 314, 295, 314, 314, 314, 295, 314, 314, 295, 295, 314, 314, 295, 295, 314, 314, 295, 295, 314, 314, 295, 295, 314, 314, 295, 295, 314, 314, 295, 295, 314, 314, 295, 295, 314, 314, 295, 295, 314, 314, 295, 295, 314, 314, 295, 295, 314, 314, 295, 295, 314, 314, 295, 295, 314, 314, 295, 295, 314, 314, 295, 295, 314, 314, 314, 295, 314, 314, 314, 295, 314, 314, 314, 295, 314, 314, 314, 295, 314, 314, 295, 295, 314, 314, 295, 295, 314, 314, 295, 295, 314, 314, 88, 314, 314, 314, 88, 314, 314, 314, 88, 314, 314, 314, 88, 314, 314, 314, 88, 314, 314, 314, 88, 314, 314, 314, 88, 314, 314, 314, 314, 295, 314, 314, 314, 295, 314, 314, 314, 295, 314, 314, 314, 295, 314, 314, 314, 295, 314, 314, 314, 295, 314, 314, 314, 295, 314, 314, 295, 295, 314, 314, 295, 295, 314, 314, 295, 295, 314, 314, 295, 295, 314, 314, 295, 295, 314, 314, 295, 295, 314, 314, 295, 295, 314, 314, 295, 295, 314, 314, 295, 295, 314, 314, 295, 295, 314, 314, 295, 295, 314, 314, 295, 295, 314, 314, 295, 295, 314, 314, 295, 295, 314, 314, 295, 295, 314, 314, 295, 295, 314, 314, 295, 295, 314, 314, 295, 295, 314, 314, 295, 295, 314, 314, 295, 295, 314, 314, 295, 295, 314, 314, 295, 295, 314, 314, 314, 295, 314, 314, 314, 295, 314, 314, 314, 295, 314, 314, 314, 295, 314, 314, 314, 295, 314, 314, 314, 295, 314, 314, 295, 295, 314, 314, 295, 295, 314, 314, 295, 295, 314, 314, 295, 295, 314, 314, 295, 295, 314, 314, 295, 295, 314, 314, 295, 295, 314, 314, 295, 295, 314, 314, 295, 295, 314, 314, 295, 295, 314, 314, 295, 295, 314, 314, 295, 295, 314, 314, 295, 295, 314, 314, 295, 295, 314, 314, 295, 295, 314, 314, 295, 295, 314, 314, 295, 295, 314, 314, 295, 295, 314, 314, 295, 295, 314, 314, 295, 295, 314, 314, 295, 295, 314, 314, 295, 295, 314, 314, 295, 295, 314, 314, 295, 295, 314, 314, 295, 295, 314, 314, 295, 295, 314, 314, 295, 295, 314, 314, 295, 295, 314, 314, 295, 295, 314, 314, 295, 295, 314, 314, 295, 295, 314, 314, 295, 295, 314, 314, 295, 295, 314, 314, 295, 295, 314, 314, 295, 295, 314, 314, 295, 295, 314, 314, 295, 295, 314, 314, 295, 295, 314, 314, 295, 295, 314, 314, 295, 295, 314, 314, 295, 295, 314, 314, 295, 295, 314, 314, 295, 295, 314, 314, 295, 295, 314, 314, 295, 295, 314, 314, 295, 295, 314, 314, 295, 295, 314, 314, 295, 295, 314, 314, 295, 295, 314, 314, 295, 295, 314, 314, 295, 295, 314, 314, 295, 295, 314, 314, 295, 295, 314, 314, 295, 295, 314, 314, 295, 295, 314, 314, 295, 295, 314, 314, 295, 295, 314, 314, 295, 295, 314, 314, 295, 295, 314, 314, 295, 295, 314, 314, 295, 295, 314, 314, 295, 295, 314, 314, 295, 295, 314, 314, 295, 295, 314, 314, 295, 295, 314, 314, 295, 295, 314, 314, 295, 295, 314, 314, 295, 295, 314, 314, 295, 295, 314, 314, 295, 295, 314, 314, 295, 295, 314, 314, 295, 295, 314, 314, 295, 295, 314, 314, 295, 295, 314, 314, 295, 295, 314, 314, 295, 295, 314, 314, 295, 295, 314, 314, 295, 295, 314, 314, 295, 295, 314, 314, 295, 295, 314, 314, 295, 295, 314, 314, 295, 295, 314, 314, 295, 295, 314, 314, 295, 295, 314, 314, 295, 295, 314, 314, 295, 295, 314, 314, 295, 295, 314, 314, 295, 295, 314, 314, 295, 295, 314, 314, 295, 295, 314, 314, 295, 295, 314, 314, 295, 295, 314, 314, 295, 295, 314, 314, 295, 295, 314, 314, 295, 295, 314, 314, 295, 295, 314, 314, 295, 295, 314, 314, 295, 295, 314, 314, 295, 295, 314, 314, 295, 295, 314, 314, 295, 295, 314, 314, 295, 295, 314, 314, 295, 295, 314, 314, 295, 295, 314, 314, 295, 295, 314, 314, 295, 295, 314, 314, 295, 295, 314, 314, 295, 295, 314, 314, 295, 295, 314, 314, 295, 295, 314, 314, 295, 295, 314, 314, 295, 295, 314, 314, 295, 295, 314, 314, 295, 295, 314, 314, 295, 295, 314, 314, 295, 295, 314, 314, 295, 295, 314, 314, 295, 295, 314, 314, 295, 295, 314, 314, 295, 295, 314, 314, 295, 295, 314, 314, 295, 295, 314, 314, 295, 295, 314, 314, 295, 295, 314, 314, 295, 295, 314, 314, 295, 295, 314, 314, 295, 295, 314, 314, 295, 295, 314, 314, 295, 295, 314, 314, 295, 295, 314, 314, 295, 295, 314, 314, 295, 295, 314, 314, 295, 295, 314, 314, 295, 295, 314, 314, 295, 295, 314, 314, 295, 295, 314, 314, 295, 295, 314, 314, 295, 295, 314, 314, 295, 295, 314, 314, 295, 295, 314, 314, 295, 295, 314, 314, 295, 295, 314, 314, 295, 295, 314, 314, 295, 295, 314, 314, 295, 295, 314, 314, 295, 295, 314, 314, 295, 295, 314, 314, 295, 295, 314, 314, 295, 295, 314, 314, 295, 295, 314, 314, 295, 295, 314, 314, 295, 295, 314, 314, 295, 295, 314, 314, 295, 295, 314, 314, 295, 295, 314, 314, 295, 295, 314, 314, 295, 295, 314, 314, 295, 295, 314, 314, 295, 295, 314, 314, 295, 295, 314, 314, 295, 295, 314, 314, 295, 295, 314, 314, 295, 295, 314, 314, 295, 295, 314, 88, 88, 88, 88, 88, 88, 88, 88, 314, 295, 295, 314, 314, 295, 295, 314, 314, 295, 295, 314, 314, 295, 295, 314, 314, 295, 295, 314, 314, 295, 295, 314, 314, 295, 295, 314, 314, 295, 295, 314, 314, 295, 295, 314, 314, 295, 295, 314, 314, 295, 295, 314, 314, 295, 295, 314, 314, 295, 295, 314, 314, 295, 295, 314, 314, 295, 295, 314, 314, 295, 295, 314, 314, 295, 295, 314, 314, 295, 295, 314, 314, 295, 295, 314, 314, 295, 295, 314, 314, 295, 295, 314, 314, 295, 295, 314, 314, 295, 295, 314, 314, 295, 295, 314, 314, 295, 295, 314, 314, 295, 295, 314, 314, 295, 295, 314, 314, 295, 295, 314, 314, 295, 295, 314, 314, 295, 295, 314, 314, 295, 295, 314, 314, 295, 295, 314, 314, 295, 295, 314, 314, 295, 295, 314, 314, 295, 295, 314, 314, 295, 295, 314, 314, 295, 295, 314, 314, 295, 295, 314, 314, 295, 295, 314, 314, 295, 295, 314, 314, 295, 295, 314, 314, 295, 295, 314, 314, 295, 295, 314, 314, 295, 295, 314, 314, 295, 295, 314, 314, 295, 295, 314, 314, 295, 295, 314, 314, 295, 295, 314, 314, 295, 295, 314, 314, 295, 295, 314, 314, 295, 295, 314, 314, 295, 295, 314, 314, 295, 295, 314, 314, 295, 295, 314, 314, 295, 295, 314, 314, 295, 295, 314, 314, 295, 295, 314, 314, 295, 295, 314, 314, 295, 295, 314, 314, 295, 295, 314, 314, 295, 295, 314, 314, 295, 295, 314, 314, 295, 295, 314, 314, 295, 295, 314, 314, 295, 295, 314, 314, 295, 295, 314, 314, 295, 295, 314, 314, 295, 295, 314, 314, 295, 295, 314, 314, 295, 295, 314, 314, 295, 295, 314, 314, 295, 295, 314, 314, 295, 295, 314, 314, 295, 295, 314, 314, 295, 295, 314, 314, 295, 295, 314, 314, 295, 295, 314, 314, 295, 295, 314, 314, 295, 295, 314, 314, 295, 295, 314, 314, 295, 295, 314, 314, 295, 295, 314, 314, 295, 295, 314, 314, 295, 295, 314, 314, 295, 295, 314, 88, 88, 88, 88, 314, 295, 295, 314, 314, 295, 295, 314, 314, 295, 295, 314, 314, 295, 295, 314, 314, 295, 295, 314, 314, 295, 295, 314, 314, 295, 295, 314, 314, 295, 295, 314, 314, 295, 295, 314, 314, 295, 295, 314, 314, 295, 295, 314, 314, 295, 295, 314, 314, 295, 295, 314, 314, 295, 295, 314, 314, 295, 295, 314, 314, 295, 295, 314, 314, 295, 295, 314, 314, 295, 295, 314, 314, 295, 295, 314, 314, 295, 295, 314, 314, 295, 295, 314, 314, 295, 295, 314, 314, 295, 295, 314, 314, 295, 295, 314, 314, 295, 295, 314, 314, 295, 295, 314, 314, 295, 295, 314, 314, 295, 295, 314, 314, 295, 295, 314, 314, 295, 295, 314, 314, 295, 295, 314, 314, 295, 295, 314, 314, 295, 295, 314, 314, 295, 295, 314, 314, 295, 295, 314, 314, 295, 295, 314, 314, 295, 295, 314, 314, 295, 295, 314, 314, 295, 295, 314, 314, 295, 295, 314, 314, 295, 295, 314, 314, 295, 295, 314, 314, 295, 295, 314, 314, 295, 295, 314, 314, 295, 295, 314, 314, 295, 295, 314, 314, 295, 295, 314, 314, 295, 295, 314, 314, 295, 295, 314, 314, 295, 295, 314, 314, 295, 295, 314, 314, 295, 295, 314, 314, 295, 295, 314, 314, 295, 295, 314, 314, 295, 295, 314, 314, 295, 295, 314, 314, 295, 295, 314, 314, 295, 295, 314, 314, 295, 295, 314, 314, 295, 295, 314, 314, 295, 295, 314, 314, 295, 295, 314, 314, 295, 295, 314, 314, 295, 295, 314, 314, 295, 295, 314, 314, 295, 295, 314, 314, 295, 295, 314, 314, 295, 295, 314, 314, 295, 295, 314, 314, 295, 295, 314, 314, 295, 295, 314, 314, 295, 295, 314, 314, 295, 295, 314, 314, 295, 295, 314, 314, 295, 295, 314, 314, 295, 295, 314, 314, 295, 295, 314, 314, 295, 295, 314, 314, 295, 295, 314, 314, 295, 295, 314, 88, 88, 88, 88, 314, 295, 295, 314, 314, 295, 295, 314, 314, 295, 295, 314, 314, 295, 295, 314, 314, 295, 295, 314, 314, 295, 295, 314, 314, 295, 295, 314, 314, 295, 295, 314, 314, 295, 295, 314, 314, 295, 295, 314, 314, 295, 295, 314, 314, 295, 295, 314, 314, 295, 295, 314, 314, 295, 295, 314, 314, 295, 295, 314, 314, 295, 295, 314, 314, 295, 295, 314, 314, 295, 295, 314, 314, 295, 295, 314, 314, 295, 295, 314, 314, 295, 295, 314, 314, 295, 295, 314, 314, 295, 295, 314, 314, 295, 295, 314, 314, 295, 295, 314, 314, 295, 295, 314, 314, 295, 295, 314, 314, 295, 295, 314, 314, 295, 295, 314, 314, 295, 295, 314, 314, 295, 295, 314, 314, 295, 295, 314, 314, 295, 295, 314, 314, 295, 295, 314, 314, 295, 295, 314, 314, 295, 295, 314, 314, 295, 295, 314, 88, 88, 88, 88, 317, 298, 298, 317, 317, 298, 298, 317, 317, 298, 298, 317, 317, 298, 298, 317, 317, 298, 298, 317, 317, 298, 298, 317, 317, 298, 298, 317, 88, 88, 88, 88, 88, 88, 88, 88, 88, 88, 88, 88, 88, 88, 88, 88, 88, 88, 88, 88, 88, 88, 88, 88, 88, 88, 88, 88, 
gpgpu_n_tot_thrd_icount = 662830560
gpgpu_n_tot_w_icount = 20713455
gpgpu_n_icache_hits = 10483973
gpgpu_n_icache_misses = 509797
gpgpu_n_l1dcache_read_hits = 7007238
gpgpu_n_l1dcache_read_misses = 19992762
gpgpu_n_l1dcache_write_accesses = 26154000
gpgpu_n_l1dcache_wirte_misses = 26154000
gpgpu_n_tcache_hits = 0
gpgpu_n_tcache_misses = 0
gpgpu_n_ccache_hits = 143608
gpgpu_n_ccache_misses = 392
gpgpu_n_stall_shd_mem = 279246559
gpgpu_n_mem_read_local = 0
gpgpu_n_mem_write_local = 0
gpgpu_n_mem_read_global = 18369447
gpgpu_n_mem_write_global = 26154000
gpgpu_n_mem_texture = 0
gpgpu_n_mem_const = 14
gpgpu_n_load_insn  = 86400000
gpgpu_n_store_insn = 82080000
gpgpu_n_shmem_insn = 0
gpgpu_n_tex_insn = 0
gpgpu_n_const_mem_insn = 0
gpgpu_n_param_mem_insn = 8640000
gpgpu_n_shmem_bkconflict = 0
gpgpu_n_cache_bkconflict = 0
gpgpu_n_intrawarp_mshr_merge = 0
gpgpu_n_cmem_portconflict = 0
gpgpu_stall_shd_mem[c_mem][bk_conf] = 0
gpgpu_stall_shd_mem[c_mem][mshr_rc] = 0
gpgpu_stall_shd_mem[c_mem][icnt_rc] = 0
gpgpu_stall_shd_mem[t_mem][mshr_rc] = 0
gpgpu_stall_shd_mem[t_mem][icnt_rc] = 0
gpgpu_stall_shd_mem[s_mem][bk_conf] = 0
gpgpu_stall_shd_mem[gl_mem][bk_conf] = 0
gpgpu_stall_shd_mem[gl_mem][coal_stall] = 279246559
gpgpu_stall_shd_mem[g_mem_ld][mshr_rc] = 0
gpgpu_stall_shd_mem[g_mem_ld][icnt_rc] = 0
gpgpu_stall_shd_mem[g_mem_ld][wb_icnt_rc] = 0
gpgpu_stall_shd_mem[g_mem_ld][wb_rsrv_fail] = 0
gpgpu_stall_shd_mem[g_mem_st][mshr_rc] = 0
gpgpu_stall_shd_mem[g_mem_st][icnt_rc] = 0
gpgpu_stall_shd_mem[g_mem_st][wb_icnt_rc] = 0
gpgpu_stall_shd_mem[g_mem_st][wb_rsrv_fail] = 0
gpgpu_stall_shd_mem[l_mem_ld][mshr_rc] = 0
gpgpu_stall_shd_mem[l_mem_ld][icnt_rc] = 0
gpgpu_stall_shd_mem[l_mem_ld][wb_icnt_rc] = 0
gpgpu_stall_shd_mem[l_mem_ld][wb_rsrv_fail] = 0
gpgpu_stall_shd_mem[l_mem_st][mshr_rc] = 0
gpgpu_stall_shd_mem[l_mem_st][icnt_rc] = 0
gpgpu_stall_shd_mem[l_mem_ld][wb_icnt_rc] = 0
gpgpu_stall_shd_mem[l_mem_ld][wb_rsrv_fail] = 0
gpu_reg_bank_conflict_stalls = 0
Warp Occupancy Distribution:
Stall:415853478	W0_Idle:133847091	W0_Scoreboard:2638054	W1:617798	W2:5244	W3:33116	W4:6080	W5:28680	W6:6080	W7:28730	W8:7429	W9:27093	W10:7904	W11:30734	W12:134937	W13:140409	W14:130712	W15:146040	W16:123725	W17:122235	W18:124088	W19:121986	W20:107613	W21:101321	W22:94712	W23:4039576	W24:1340550	W25:90830	W26:72320	W27:74220	W28:72320	W29:62924	W30:63072	W31:3089383	W32:9661594
maxmrqlatency = 530 
maxdqlatency = 0 
maxmflatency = 901 
averagemflatency = 201 
max_icnt2mem_latency = 734 
max_icnt2sh_latency = 20480875 
mrq_lat_table:11776279 	1252760 	3327984 	6271003 	7572803 	4992059 	2223660 	460989 	11074 	1 	0 	0 	0 	0 	0 	0 	0 	0 	0 	0 	0 	0 	0 	0 	0 	0 	0 	0 	0 	0 	0 	0 	
dq_lat_table:0 	0 	0 	0 	0 	0 	0 	0 	0 	0 	0 	0 	0 	0 	0 	0 	0 	0 	0 	0 	0 	0 	0 	0 	0 	0 	0 	0 	0 	0 	0 	0 	
mf_lat_table:0 	0 	0 	0 	0 	0 	4576079 	32302092 	7634373 	10917 	0 	0 	0 	0 	0 	0 	0 	0 	0 	0 	0 	0 	0 	0 	0 	0 	0 	0 	0 	0 	0 	0 	
icnt2mem_lat_table:6399 	174466 	218421 	340756 	918119 	16398381 	17381339 	9167695 	48083 	18 	0 	0 	0 	0 	0 	0 	0 	0 	0 	0 	0 	0 	0 	0 	
icnt2sh_lat_table:0 	2264264 	4941803 	10562266 	599999 	1129 	0 	0 	0 	0 	0 	0 	0 	0 	0 	12364 	63488 	126987 	304117 	625924 	1354145 	2620325 	5483297 	10804221 	
mf_lat_pw_table:4759132 	0 	0 	0 	0 	0 	8 	39348 	1605 	0 	0 	0 	0 	0 	0 	0 	0 	0 	0 	0 	0 	0 	0 	0 	0 	0 	0 	0 	0 	0 	0 	0 	
maximum concurrent accesses to same row:
dram[0]:        48        45        52        56        48        48        60        72        48        48        51        56        48        48        52        48 
dram[1]:        52        48        48        48        48        46        52        60        48        48        48        56        43        56        52        54 
dram[2]:        47        48        48        53        50        42        65        62        48        46        46        56        55        56        52        50 
dram[3]:        55        50        55        56        50        49        53        68        52        53        48        63        50        56        54        62 
dram[4]:        47        46        52        56        48        48        70        70        52        48        52        56        52        48        56        62 
maximum service time to same row:
dram[0]:      7570      8204      7339      6891      7924      7996     10810     10232      8441      6481      7765      7483      7903      6177      6294      7535 
dram[1]:      7342      8176      7554      6883      7914      6505      6078     10231      8440      5345      7747      7488      7554      6176      6272     11075 
dram[2]:     11948      8182      7553      6866      7958      5731      7266      8016      9327      5675      7334      7517      6562      4972      6993      7928 
dram[3]:      7729      7355      7481      6905      9286      5433      7651      6650      9387      6850      7658      6385      6195      4934      6884      6338 
dram[4]:      6267      8225      7569      6908      9211      7973      7851      5923      9325      6829      7757      6334      6422      6173      5162     11072 
average row accesses per activate:
dram[0]:  5.321972  5.760596  5.806315  5.897212  5.839892  5.884679  5.900323  5.944654  5.806498  5.822342  5.831464  5.924280  5.823080  5.865489  5.835778  5.925126 
dram[1]:  5.235256  5.538325  5.559484  5.627684  5.601418  5.644706  5.638480  5.682690  5.580005  5.598805  5.612331  5.664297  5.579268  5.638696  5.601708  5.670975 
dram[2]:  4.487578  4.671207  4.726475  4.734363  4.753252  4.746369  4.762785  4.763685  4.706031  4.689220  4.755775  4.772233  4.730135  4.734263  4.720066  4.766328 
dram[3]:  4.500606  4.844776  4.887968  4.932176  4.901589  4.922563  4.964653  4.964621  4.867449  4.865543  4.926334  4.954945  4.877552  4.908408  4.908327  4.959771 
[...]
dram[3]:      8491      7571      8200      6905      9286      6112     10152      7418      9387      6850      7658      6385      7328      5945      6884      9602 
dram[4]:      6542      8225     11363      6943      9211      7982     10160      7598      9325      6829      7757      7386      7533      9031      7712     11072 
average row accesses per activate:
dram[0]:  5.314618  5.765908  5.799424  5.887874  5.839858  5.850460  5.835281  5.910095  5.805933  5.800876  5.799338  5.891047  5.827813  5.833430  5.827950  5.919260 
dram[1]:  5.242949  5.542732  5.563929  5.638526  5.596731  5.598635  5.590042  5.660080  5.583635  5.575595  5.569013  5.646437  5.587906  5.600212  5.591595  5.669620 
dram[2]:  4.480457  4.670269  4.723529  4.742391  4.751838  4.721918  4.721288  4.754476  4.703552  4.675066  4.724898  4.743608  4.727273  4.710047  4.716054  4.763635 
dram[3]:  4.498202  4.852662  4.885011  4.936914  4.903934  4.894993  4.912795  4.946019  4.861901  4.853163  4.891135  4.932786  4.893083  4.892836  4.895865  4.950997 
dram[4]:  5.303050  5.885982  5.867662  5.992424  5.892848  5.929437  5.909909  6.011944  5.864994  5.891297  5.874284  6.005401  5.876697  5.934337  5.884008  6.033932 
average row locality = 75842725/14293983 = 5.305920
number of total memory accesses made:
dram[0]:         0         0         0         0         0         0         0         0         0         0         0         0         0         0         0         0 
dram[1]:         0         0         0         0         0         0         0         0         0         0         0         0         0         0         0         0 
dram[2]:         0         0         0         0         0         0         0         0         0         0         0         0         0         0         0         0 
dram[3]:         0         0         0         0         0         0         0         0         0         0         0         0         0         0         0         0 
dram[4]:         0         0         0         0         0         0         0         0         0         0         0         0         0         0         0         0 
total accesses: 0
min_bank_accesses = 0!
min_chip_accesses = 0!
number of total read accesses:
dram[0]:    448758    431023    435684    430624    433968    431388    432690    427561    431903    429969    434053    430484    434823    429759    430529    428589 
dram[1]:    397743    386022    389427    385684    388276    386513    386475    382984    386212    385013    387935    385317    388626    384862    384637    383533 
dram[2]:    465073    450988    455587    450782    454136    451429    452647    448259    452183    450119    453924    450936    454375    449956    450562    448967 
dram[3]:    519764    497089    503369    497243    501552    497656    499751    494166    499447    496150    501249    496899    501640    496074    497731    495477 
dram[4]:    480036    457725    463848    457713    462009    458264    459871    454351    459877    456640    461523    457353    462307    456346    457877    455400 
total reads: 35707384
bank skew: 519764/382984 = 1.36
chip skew: 7995257/6189259 = 1.29
number of total write accesses:
dram[0]:    493646    492612    493981    491894    493378    493792    493305    489928    491850    492173    493093    489939    492825    491468    490666    490968 
dram[1]:    447410    446646    447566    445931    447120    447706    446609    444282    445571    446403    446821    444026    446481    445571    444440    445082 
dram[2]:    505506    504311    505467    503681    505013    505378    504835    502289    503607    504193    504909    502145    504245    503546    502760    503136 
dram[3]:    549832    548121    550064    547418    549474    549388    549116    545601    547860    547775    548951    545512    548259    547201    546885    546797 
dram[4]:    519854    518106    520382    517536    519551    519429    519070    515556    518099    517645    519036    515498    518737    517087    516703    516594 
total reads: 40135341
bank skew: 550064/444026 = 1.24
chip skew: 8768254/7137665 = 1.23
average mf latency per bank:
dram[0]:        224       227       226       227       225       226       227       228       227       228       226       228       227       227       228       228
dram[1]:        220       223       222       222       221       221       223       223       222       223       222       224       223       222       224       223
dram[2]:        223       226       225       225       224       225       226       226       225       226       225       227       226       226       227       226
dram[3]:        249       254       252       253       251       253       254       254       253       254       253       254       253       254       255       254
dram[4]:        239       244       242       243       241       243       244       244       243       244       243       244       243       244       244       244
maximum mf latency per bank:
dram[0]:        591       611       854       606       777       654       663       646       670       639       666       643       770       644       715       689
dram[1]:        621       636       746       587       595       611       708       615       637       645       621       610       638       627       887       636
dram[2]:        795       766       764       739       672       722       688       804       746       653       830       723       698       795       659       726
dram[3]:        803       863       728       771       817       816       776       695       754       714       743       735       728       852       702       806
dram[4]:        747       664       738       774       714       689       752       670       722       901       722       738       715       704       838       698

Number of Memory Banks Accessed per Memory Operation per Warp (from 0):
0	0	0	0	0	0	0	0	0	0	0	0	0	0	0	0	0	0	0	0	0	0	0	0	0	0	0	0	0	0	0	0	0	0	0	0	0	0	0	0	0	0	0	0	0	0	0	0	0	0	0	0	0	0	0	0	0	0	0	0	0	0	0	0	0	0	0	0	0	0	0	0	0	0	0	0	0	0	0	0	
Average # of Memory Banks Accessed per Memory Operation per Warp=-nan

position of mrq chosen
0	0	0	0	0	0	0	0	0	0	0	0	0	0	0	0	

average position of mrq chosen = -nan
gpgpu_l2_write_miss = 0
gpgpu_l2_write_access = 0
gpgpu_l2_read_miss = 0
gpgpu_l2_read_access = 0
Cache L2_bank_000:
MSHR contents

DRAM[0]: 16 bks, busW=4 BL=8 CL=12, tRRD=2 tCCD=6, tRCD=12 tRAS=28 tRP=12 tRC=40
n_cmd=122274066 n_nop=90050775 n_act=2550057 n_pre=2550041 n_req=14797323 n_rd=13843610 n_write=13279583 bw_util=0.4436
n_activity=109405196 dram_eff=0.4958
bk0: 897516a 101801886i bk1: 862046a 101214314i bk2: 871368a 101393801i bk3: 861248a 100674687i bk4: 867936a 101086565i bk5: 862776a 100340677i bk6: 865380a 100426529i bk7: 855122a 99434831i bk8: 863806a 99471637i bk9: 859938a 98253682i bk10: 868106a 97877412i bk11: 860968a 96317813i bk12: 869646a 95426781i bk13: 859518a 92568652i bk14: 861058a 88120246i bk15: 857178a 77015356i 
dram_util_bins: 0 0 0 0 0 0 0 0 0 0
dram_eff_bins: 0 0 0 0 0 0 0 0 0 0
mrqq: max=16 avg=6.86871
Cache L2_bank_001:
MSHR contents

DRAM[1]: 16 bks, busW=4 BL=8 CL=12, tRRD=2 tCCD=6, tRCD=12 tRAS=28 tRP=12 tRC=40
n_cmd=122274066 n_nop=92635717 n_act=2389816 n_pre=2389800 n_req=13326924 n_rd=12378518 n_write=12480215 bw_util=0.4066
n_activity=103628268 dram_eff=0.4798
bk0: 795486a 104620584i bk1: 772044a 104008233i bk2: 778854a 104310851i bk3: 771368a 103573893i bk4: 776552a 104057214i bk5: 773026a 103295505i bk6: 772950a 103526735i bk7: 765968a 102491932i bk8: 772424a 102573635i bk9: 770026a 101325494i bk10: 775870a 101069759i bk11: 770634a 99443565i bk12: 777252a 98431777i bk13: 769724a 95537419i bk14: 769274a 91541806i bk15: 767066a 80457981i 
dram_util_bins: 0 0 0 0 0 0 0 0 0 0
dram_eff_bins: 0 0 0 0 0 0 0 0 0 0
mrqq: max=16 avg=5.76601
Cache L2_bank_002:
MSHR contents
MSHR: tag=0x8b0f2180, atomic=0 1 entries : 0x2b6daf0c1f30 :  mf: uid=623643518, sid10:w25, part=2, addr=0x8b0f21e0, load , size=32, unknown  status = IN_PARTITION_DRAM (40758023), 

DRAM[2]: 16 bks, busW=4 BL=8 CL=12, tRRD=2 tCCD=6, tRCD=12 tRAS=28 tRP=12 tRC=40
n_cmd=122274066 n_nop=88207527 n_act=3251527 n_pre=3251511 n_req=15304944 n_rd=14479845 n_write=13083656 bw_util=0.4508
n_activity=109872564 dram_eff=0.5017
bk0: 930146a 99899987i bk1: 901976a 99309543i bk2: 911174a 99568303i bk3: 901564a 98771253i bk4: 908272a 99326596i bk5: 902858a 98511534i bk6: 905294a 98736768i bk7: 896518a 97557310i bk8: 904366a 97795342i bk9: 900238a 96471515i bk10: 907848a 96197734i bk11: 901872a 94439652i bk12: 908750a 93520883i bk13: 899911a 90214554i bk14: 901124a 84832818i bk15: 897934a 70961935i 
dram_util_bins: 0 0 0 0 0 0 0 0 0 0
dram_eff_bins: 0 0 0 0 0 0 0 0 0 0
mrqq: max=16 avg=7.39558
Cache L2_bank_003:
MSHR contents

DRAM[3]: 16 bks, busW=4 BL=8 CL=12, tRRD=2 tCCD=6, tRCD=12 tRAS=28 tRP=12 tRC=40
n_cmd=122274066 n_nop=85041579 n_act=3440593 n_pre=3440577 n_req=16763511 n_rd=15990514 n_write=14360803 bw_util=0.4964
n_activity=114556187 dram_eff=0.5299
bk0: 1039528a 96033264i bk1: 994178a 95681234i bk2: 1006738a 95841673i bk3: 994486a 95011207i bk4: 1003104a 95570471i bk5: 995312a 94693256i bk6: 999502a 94835445i bk7: 988332a 93643316i bk8: 998894a 93821878i bk9: 992300a 92416210i bk10: 1002498a 92036758i bk11: 993798a 90259339i bk12: 1003280a 89453979i bk13: 992148a 85999011i bk14: 995462a 80344863i bk15: 990954a 66794513i 
dram_util_bins: 0 0 0 0 0 0 0 0 0 0
dram_eff_bins: 0 0 0 0 0 0 0 0 0 0
mrqq: max=16 avg=8.90032
Cache L2_bank_004:
MSHR contents

DRAM[4]: 16 bks, busW=4 BL=8 CL=12, tRRD=2 tCCD=6, tRCD=12 tRAS=28 tRP=12 tRC=40
n_cmd=122274066 n_nop=87835651 n_act=2661991 n_pre=2661975 n_req=15650023 n_rd=14722280 n_write=14392169 bw_util=0.4762
n_activity=112280819 dram_eff=0.5186
bk0: 960072a 99210687i bk1: 915450a 98887631i bk2: 927696a 99004286i bk3: 915426a 98254842i bk4: 924018a 98606675i bk5: 916528a 97848735i bk6: 919742a 97824670i bk7: 908702a 96756609i bk8: 919754a 96738428i bk9: 913280a 95464157i bk10: 923046a 95042676i bk11: 914706a 93498285i bk12: 924614a 92660039i bk13: 912692a 89720953i bk14: 915754a 85289388i bk15: 910800a 74491407i 
dram_util_bins: 0 0 0 0 0 0 0 0 0 0
dram_eff_bins: 0 0 0 0 0 0 0 0 0 0
mrqq: max=16 avg=7.97321
Cache L2_bank_000:	Size = 131072 B (64 Set x 16-way x 128 byte line)
		Access = 17591653, Miss = 6921805 (0.393), PendingHit = 16564 (0.000942)
Cache L2_bank_001:	Size = 131072 B (64 Set x 16-way x 128 byte line)
		Access = 15971561, Miss = 6189259 (0.388), PendingHit = 14070 (0.000881)
Cache L2_bank_002:	Size = 131072 B (64 Set x 16-way x 128 byte line)
		Access = 17309574, Miss = 7239923 (0.418), PendingHit = 16768 (0.000969)
Cache L2_bank_003:	Size = 131072 B (64 Set x 16-way x 128 byte line)
		Access = 19431209, Miss = 7995257 (0.411), PendingHit = 20714 (0.00107)
Cache L2_bank_004:	Size = 131072 B (64 Set x 16-way x 128 byte line)
		Access = 18927066, Miss = 7361140 (0.389), PendingHit = 19065 (0.00101)
L2 Cache Total Miss Rate = 0.400

icnt_total_pkts_mem_to_simt=236923287
icnt_total_pkts_simt_to_mem=230855063

LD_mem_lat_dist  0 0 0 0 0 0 0 0 0 0 0 0 0 0 0 0 0 0 0 0 0 0 0 0 0 0 0
ST_mem_lat_dist  0 0 0 0 0 0 0 0 0 0 0 0 0 0 0 0 0 0 0 0 0 0 0 0 0 0 0
Traffic 0 Stat
%=================================
% Average latency = 99.4685
% Accepted packets = 0 at node 0 (avg = 0.123709)
lat(3) = 99.4685;
thru(3,:) = [ 0 0 0 0 0 0 0 0 0 0 0 0 0 0 0.568815 0.529191 0.527802 0.606359 0.613139 0 0 0 0 ];
% latency change    = 0.874047
% throughput change = 0.0180494
Traffic 1 Stat
%=================================
% Average latency = 12.558
% Accepted packets = 0 at node 14 (avg = 0.126798)
lat(4) = 12.558;
thru(4,:) = [ 0.206453 0.208636 0.207698 0.207791 0.211783 0.201006 0.203391 0.209062 0.208825 0.210287 0.209684 0.210677 0.21315 0.207917 0 0 0 0 0 0 0 0 0 ];
% latency change    = 6.92073
% throughput change = 0.0243639
----------------------------Interconnect-DETAILS---------------------------------=======Traffic[0]class0 ======
Traffic[0]class0Overall average latency = 100.023 (2 samples)
Traffic[0]class0Overall average accepted rate = 0.123134 (2 samples)
Traffic[0]class0Overall min accepted rate = 0 (2 samples)
traffic_manager/latency_stat_0_freq = [ 0 197818 42171 34473 32661 37067 30572 28403 29097 28779 26638 24989 24062 24071 23310 23670 496134 621747 439910 475128 437772 459550 425472 517737 531528 537888 607770 614899 622637 623365 630086 632169 616613 636049 622790 615432 606686 594958 581547 563204 547890 531269 509660 495495 477626 460708 439689 426985 407055 390713 372848 358050 341353 328280 311785 298413 283467 272073 258175 248251 235204 225743 213669 205578 194480 187328 178712 172432 164469 159130 152605 148156 142331 139369 134194 130839 126921 125176 120718 119377 116327 115655 112493 112502 110108 109633 107320 108443 106802 107130 106197 106522 105865 107138 106118 107735 106513 108134 108848 110403 109119 111156 111368 113658 113523 115483 115810 118226 118251 120599 120228 122288 122323 124934 124254 125937 126447 127423 127799 130538 128295 130996 130212 131140 131033 132672 131688 132871 132010 133596 130666 131831 131438 132344 130377 130426 129047 130104 128104 129073 126617 127110 124328 125387 122635 122665 120029 120503 117508 118266 115605 115619 112394 113072 110206 110744 107856 108209 105503 105325 103038 103361 100228 100800 97630 98378 94926 95157 92846 93317 90793 91027 88715 89220 86260 87076 84129 85177 82712 83976 81483 82867 79594 81081 77826 79924 77116 78351 75920 77256 75230 76247 73406 74523 72918 73899 71972 73159 71434 72440 70784 72333 69550 71451 69549 70572 68440 69954 68126 69360 67054 68937 66790 68287 65812 67333 65195 67184 64691 65871 63845 65296 63553 65041 62856 64104 62069 63521 61000 62639 60406 61899 60144 61317 59573 60526 58287 60018 57696 58700 56837 58270 55660 57556 55042 56761 54232 55171 53487 54532 52359 53934 51257 53091 50773 51980 49661 50216 48677 50023 47855 49100 47296 47897 45650 46644 44759 45427 43899 44773 42853 44237 41669 42789 40743 42089 39420 40751 38968 39449 37587 38507 36872 37528 35792 36602 34680 35491 33431 34242 32607 33531 31666 32649 30415 31428 29791 30307 28808 29402 27937 28512 27137 27203 26019 26521 25229 25781 24255 24959 23592 23566 22560 23281 21679 22027 20611 21171 20078 20369 19426 19930 18636 18966 17827 18144 16952 17595 16407 16651 15272 16104 14918 15315 14125 14674 13627 13741 12939 13277 12450 12732 11809 12278 11236 11455 10892 11018 10202 10677 9929 10030 9270 9576 8666 9175 8397 8799 8084 8370 7628 7828 7329 7545 6866 6967 6528 6857 6118 6354 5844 6032 5699 5949 5251 5610 5096 5229 4770 4977 4452 4660 4217 4307 3858 4214 3740 3845 3543 3697 3367 3492 2990 3196 3046 3101 2787 3060 2659 2837 2407 2607 2310 2465 2235 2344 2067 2213 1970 2058 1764 2019 1685 1860 1650 1756 1519 1669 1479 1577 1378 1485 1258 1412 1245 1275 1148 1221 1060 1198 1047 1137 954 1088 935 967 851 1013 780 897 731 820 681 806 631 769 635 724 554 675 563 685 508 632 496 601 460 541 437 498 420 526 412 476 364 482 354 455 352 425 310 425 270 386 262 393 287 338 273 322 267 348 227 330 248 293 218 307 192 281 193 241 202 249 175 257 160 257 156 225 146 221 144 213 137 211 134 197 113 207 125 211 118 201 111 176 96 190 95 156 68 151 78 158 87 151 94 145 88 149 79 136 95 139 72 126 80 101 58 118 50 116 60 96 60 75 39 89 35 103 35 84 40 94 42 86 30 63 36 92 33 75 32 93 37 70 27 55 29 54 17 55 22 40 22 38 29 60 20 42 26 44 15 41 20 31 13 36 17 37 19 33 15 23 15 37 16 33 15 33 12 27 9 33 7 22 10 18 6 29 8 27 10 12 6 9 4 15 6 10 3 17 10 17 10 8 8 16 1 13 11 21 5 7 5 8 3 11 3 7 5 11 1 8 1 4 2 11 2 14 4 6 2 3 3 8 3 7 1 4 4 6 0 5 1 2 3 3 2 7 2 7 4 3 3 3 1 6 4 3 0 3 0 2 2 3 1 4 2 4 0 4 0 1 1 2 1 1 0 2 0 4 0 1 0 2 0 4 1 2 0 2 2 1 1 1 0 3 2 0 0 2 1 2 0 2 1 2 1 5 0 3 0 3 0 4 0 1 1 0 0 3 0 3 0 1 1 3 0 2 0 2 0 2 0 2 0 4 0 1 0 1 0 1 0 1 0 1 0 1 0 2 0 2 0 1 0 1 0 2 0 1 0 4 0 1 0 2 0 0 0 0 0 1 0 2 0 1 0 1 0 1 0 2 0 2 0 0 0 0 0 0 0 0 0 0 0 2 0 0 0 0 0 0 0 1 0 0 0 0 0 1 0 0 0 0 0 0 0 0 0 0 0 0 0 0 0 1 0 0 0 0 0 0 0 0 0 0 0 1 0 0 0 1 0 1 0 0 0 0 0 0 0 0 0 0 0 0 0 2 0 0 0 0 0 0 0 0 0 0 0 0 0 0 0 0 0 0 0 0 0 0 0 0 0 0 0 0 0 0 0 0 0 0 0 0 0 0 0 1 0 0 0 0 0 0 0 0 0 0 0 0 0 0 0 0 0 0 0 0 0 0 0 0 0 0 0 0 0 0 0 0 0 0 0 0 0 0 0 0 0 0 0 0 0 0 0 0 0 0 0 0 0 0 0 0 0 0 0 0 0 0 0 0 0 0 0 0 0 0 0 0 0 0 0 0 0 0 0 0 ];
Traffic[0]class1Average hops = 1 (89231063 samples)
traffic_manager/hop_stats_freq = [ 0 89231063 0 0 0 0 0 0 0 0 0 0 0 0 0 0 0 0 0 0 ];
=======Traffic[1]class0 ======
Traffic[1]class0Overall average latency = 12.5432 (2 samples)
Traffic[1]class0Overall average accepted rate = 0.12637 (2 samples)
Traffic[1]class0Overall min accepted rate = 0 (2 samples)
traffic_manager/latency_stat_0_freq = [ 0 7118740 961545 590541 870273 2607065 1101040 1006701 1326633 2194747 1167250 1077091 1090229 1143606 1123177 897487 6680793 2090194 1484162 1431227 1642772 1669441 781634 613856 585467 627955 641155 307280 243060 230151 236878 246731 118117 92073 88953 88802 94654 43741 34663 33894 33304 37754 16464 12920 13422 13953 17111 6100 5072 5498 5813 7537 2417 1846 2023 2280 3516 779 605 768 932 1346 241 194 294 358 538 52 48 63 84 166 13 9 12 28 47 0 1 0 0 0 0 0 0 0 0 0 0 0 0 0 0 0 0 0 0 0 0 0 0 0 0 0 0 0 0 0 0 0 0 0 0 0 0 0 0 0 0 0 0 0 0 0 0 0 0 0 0 0 0 0 0 0 0 0 0 0 0 0 0 0 0 0 0 0 0 0 0 0 0 0 0 0 0 0 0 0 0 0 0 0 0 0 0 0 0 0 0 0 0 0 0 0 0 0 0 0 0 0 0 0 0 0 0 0 0 0 0 0 0 0 0 0 0 0 0 0 0 0 0 0 0 0 0 0 0 0 0 0 0 0 0 0 0 0 0 0 0 0 0 0 0 0 0 0 0 0 0 0 0 0 0 0 0 0 0 0 0 0 0 0 0 0 0 0 0 0 0 0 0 0 0 0 0 0 0 0 0 0 0 0 0 0 0 0 0 0 0 0 0 0 0 0 0 0 0 0 0 0 0 0 0 0 0 0 0 0 0 0 0 0 0 0 0 0 0 0 0 0 0 0 0 0 0 0 0 0 0 0 0 0 0 0 0 0 0 0 0 0 0 0 0 0 0 0 0 0 0 0 0 0 0 0 0 0 0 0 0 0 0 0 0 0 0 0 0 0 0 0 0 0 0 0 0 0 0 0 0 0 0 0 0 0 0 0 0 0 0 0 0 0 0 0 0 0 0 0 0 0 0 0 0 0 0 0 0 0 0 0 0 0 0 0 0 0 0 0 0 0 0 0 0 0 0 0 0 0 0 0 0 0 0 0 0 0 0 0 0 0 0 0 0 0 0 0 0 0 0 0 0 0 0 0 0 0 0 0 0 0 0 0 0 0 0 0 0 0 0 0 0 0 0 0 0 0 0 0 0 0 0 0 0 0 0 0 0 0 0 0 0 0 0 0 0 0 0 0 0 0 0 0 0 0 0 0 0 0 0 0 0 0 0 0 0 0 0 0 0 0 0 0 0 0 0 0 0 0 0 0 0 0 0 0 0 0 0 0 0 0 0 0 0 0 0 0 0 0 0 0 0 0 0 0 0 0 0 0 0 0 0 0 0 0 0 0 0 0 0 0 0 0 0 0 0 0 0 0 0 0 0 0 0 0 0 0 0 0 0 0 0 0 0 0 0 0 0 0 0 0 0 0 0 0 0 0 0 0 0 0 0 0 0 0 0 0 0 0 0 0 0 0 0 0 0 0 0 0 0 0 0 0 0 0 0 0 0 0 0 0 0 0 0 0 0 0 0 0 0 0 0 0 0 0 0 0 0 0 0 0 0 0 0 0 0 0 0 0 0 0 0 0 0 0 0 0 0 0 0 0 0 0 0 0 0 0 0 0 0 0 0 0 0 0 0 0 0 0 0 0 0 0 0 0 0 0 0 0 0 0 0 0 0 0 0 0 0 0 0 0 0 0 0 0 0 0 0 0 0 0 0 0 0 0 0 0 0 0 0 0 0 0 0 0 0 0 0 0 0 0 0 0 0 0 0 0 0 0 0 0 0 0 0 0 0 0 0 0 0 0 0 0 0 0 0 0 0 0 0 0 0 0 0 0 0 0 0 0 0 0 0 0 0 0 0 0 0 0 0 0 0 0 0 0 0 0 0 0 0 0 0 0 0 0 0 0 0 0 0 0 0 0 0 0 0 0 0 0 0 0 0 0 0 0 0 0 0 0 0 0 0 0 0 0 0 0 0 0 0 0 0 0 0 0 0 0 0 0 0 0 0 0 0 0 0 0 0 0 0 0 0 0 0 0 0 0 0 0 0 0 0 0 0 0 0 0 0 0 0 0 0 0 0 0 0 0 0 0 0 0 0 0 0 0 0 0 0 0 0 0 0 0 0 0 0 0 0 0 0 0 0 0 0 0 0 0 0 0 0 0 0 0 0 0 0 0 0 0 0 0 0 0 0 0 0 0 0 0 0 0 0 0 0 0 0 0 0 0 0 0 0 0 0 0 0 0 0 0 0 0 0 0 0 0 0 0 0 0 0 0 0 0 0 0 0 0 0 0 0 0 0 0 0 0 0 0 0 0 0 0 0 0 0 0 0 0 0 0 0 0 0 0 0 0 0 0 0 0 0 0 ];
Traffic[1]class1Average hops = 1 (89231063 samples)
traffic_manager/hop_stats_freq = [ 0 89231063 0 0 0 0 0 0 0 0 0 0 0 0 0 0 0 0 0 0 ];
----------------------------END-of-Interconnect-DETAILS-------------------------

gpgpu_simulation_time = 0 days, 5 hrs, 27 min, 18 sec (19638 sec)
gpgpu_simulation_rate = 57627 (inst/sec)
gpgpu_simulation_rate = 2075 (cycle/sec)
timestep: 2
LBM_allocateGrid: allocated 185.2 MByte
GPGPU-Sim: synchronize waiting for inactive GPU simulation
GPGPU-Sim API: Stream Manager State
GPGPU-Sim: detected inactive GPU simulation thread
LBM_showGridStatistics:
	nObstacleCells:  343321 nAccelCells:   26912 nFluidCells: 1789767
	minRho:   0.9961 maxRho:   1.0039 mass: 2.160000e+06
	minU: 0.000000e+00 maxU: 4.025417e-03

