GPGPU-Sim PTX: pushing kernel '_Z17BFS_in_GPU_kernelPiS_P4int2S1_S_S_iS_iiS_' to stream 0, gridDim= (1,1,1) blockDim = (512,1,1) 
gpu_sim_cycle = 4458270
gpu_ipc =       7.6354
total_dl1_misses=107258
total_dl1_accesses=131329
total_dl1_miss_rate= 0.816712
gpgpu_stall_shd_mem[gl_mem][coal_stall] = 1724236
L2 Cache Total Miss Rate = 0.081
