GPGPU-Sim PTX: pushing kernel '_Z20convolution3D_kernelPfS_i' to stream 0, gridDim= (1024,1,1) blockDim = (1024,1,1) 
gpu_sim_cycle = 256859
gpu_ipc =     354.2004
total_dl1_misses=332635
total_dl1_accesses=613200
total_dl1_miss_rate= 0.542458
gpgpu_stall_shd_mem[gl_mem][coal_stall] = 1028883
L2 Cache Total Miss Rate = 0.359
