GPGPU-Sim PTX: pushing kernel '_Z20convolution3D_kernelPfS_i' to stream 0, gridDim= (1024,1,1) blockDim = (1024,1,1) 
gpu_sim_cycle = 268451
gpu_ipc =     338.9056
total_dl1_misses=325784
total_dl1_accesses=613200
total_dl1_miss_rate= 0.531285
gpgpu_stall_shd_mem[gl_mem][coal_stall] = 938754
L2 Cache Total Miss Rate = 0.365
