GPGPU-Sim PTX: pushing kernel '_Z7pebenchPjS_' to stream 0, gridDim= (112,1,1) blockDim = (512,1,1) 
gpu_sim_cycle = 38945
gpu_ipc =     207.6134
total_dl1_misses=1792
total_dl1_accesses=1792
total_dl1_miss_rate= 1.000000
gpgpu_stall_shd_mem[gl_mem][coal_stall] = 4308
L2 Cache Total Miss Rate = 0.965
