

        *** GPGPU-Sim Simulator Version 3.2.1  [build 15629] ***


               1=functional simulation only, 0=detailed performance simulator)
GPGPU-Sim: Configuration options:

-network_mode                           1 # Interconnection network mode
-inter_config_file   config_fermi_islip.icnt # Interconnection network config file
-gpgpu_ptx_use_cuobjdump                    1 # Use cuobjdump to extract ptx and sass from binaries
-gpgpu_experimental_lib_support                    0 # Try to extract code from cuda libraries [Broken because of unknown cudaGetExportTable]
-gpgpu_ptx_convert_to_ptxplus                    0 # Convert SASS (native ISA) to ptxplus and run ptxplus
-gpgpu_ptx_force_max_capability                   20 # Force maximum compute capability
-gpgpu_ptx_inst_debug_to_file                    0 # Dump executed instructions' debug information to file
-gpgpu_ptx_inst_debug_file       inst_debug.txt # Executed instructions' debug output file
-gpgpu_ptx_inst_debug_thread_uid                    1 # Thread UID for executed instructions' debug output
-gpgpu_simd_model                       1 # 1 = post-dominator
-gpgpu_shader_core_pipeline              1536:32 # shader core pipeline config, i.e., {<nthread>:<warpsize>}
-gpgpu_tex_cache:l1  4:128:24,L:R:m:N,F:128:4,128:2 # per-shader L1 texture cache  (READ-ONLY) config  {<nsets>:<bsize>:<assoc>,<rep>:<wr>:<alloc>:<wr_alloc>,<mshr>:<N>:<merge>,<mq>:<rf>}
-gpgpu_const_cache:l1 64:64:2,L:R:f:N,A:2:32,4 # per-shader L1 constant memory cache  (READ-ONLY) config  {<nsets>:<bsize>:<assoc>,<rep>:<wr>:<alloc>:<wr_alloc>,<mshr>:<N>:<merge>,<mq>} 
-gpgpu_cache:il1     4:128:4,L:R:f:N,A:2:32,4 # shader L1 instruction cache config  {<nsets>:<bsize>:<assoc>,<rep>:<wr>:<alloc>:<wr_alloc>,<mshr>:<N>:<merge>,<mq>} 
-gpgpu_cache:dl1     32:128:4,L:L:m:N,A:32:8,8 # per-shader L1 data cache config  {<nsets>:<bsize>:<assoc>,<rep>:<wr>:<alloc>:<wr_alloc>,<mshr>:<N>:<merge>,<mq> | none}
-gpgpu_perfect_mem                      0 # enable perfect memory mode (no cache miss)
-n_regfile_gating_group                    4 # group of lanes that should be read/written together)
-gpgpu_clock_gated_reg_file                    0 # enable clock gated reg file for power calculations
-gpgpu_clock_gated_lanes                    0 # enable clock gated lanes for power calculations
-gpgpu_shader_registers                32768 # Number of registers per shader core. Limits number of concurrent CTAs. (default 8192)
-gpgpu_shader_cta                       8 # Maximum number of concurrent CTAs in shader (default 8)
-gpgpu_n_clusters                      14 # number of processing clusters
-gpgpu_n_cores_per_cluster                    1 # number of simd cores per cluster
-gpgpu_n_cluster_ejection_buffer_size                    8 # number of packets in ejection buffer
-gpgpu_n_ldst_response_buffer_size                    2 # number of response packets in ld/st unit ejection buffer
-gpgpu_shmem_size                   16384 # Size of shared memory per shader core (default 16kB)
-gpgpu_shmem_num_banks                   32 # Number of banks in the shared memory in each shader core (default 16)
-gpgpu_shmem_limited_broadcast                    0 # Limit shared memory to do one broadcast per cycle (default on)
-gpgpu_shmem_warp_parts                    1 # Number of portions a warp is divided into for shared memory bank conflict check 
-gpgpu_warpdistro_shader                   -1 # Specify which shader core to collect the warp size distribution from
-gpgpu_warp_issue_shader                    0 # Specify which shader core to collect the warp issue distribution from
-gpgpu_local_mem_map                    1 # Mapping from local memory space address to simulated GPU physical address space (default = enabled)
-gpgpu_num_reg_banks                   16 # Number of register banks (default = 8)
-gpgpu_reg_bank_use_warp_id                    0 # Use warp ID in mapping registers to banks (default = off)
-gpgpu_operand_collector_num_units_sp                    6 # number of collector units (default = 4)
-gpgpu_operand_collector_num_units_sfu                    8 # number of collector units (default = 4)
-gpgpu_operand_collector_num_units_mem                    2 # number of collector units (default = 2)
-gpgpu_operand_collector_num_units_gen                    0 # number of collector units (default = 0)
-gpgpu_operand_collector_num_in_ports_sp                    2 # number of collector unit in ports (default = 1)
-gpgpu_operand_collector_num_in_ports_sfu                    1 # number of collector unit in ports (default = 1)
-gpgpu_operand_collector_num_in_ports_mem                    1 # number of collector unit in ports (default = 1)
-gpgpu_operand_collector_num_in_ports_gen                    0 # number of collector unit in ports (default = 0)
-gpgpu_operand_collector_num_out_ports_sp                    2 # number of collector unit in ports (default = 1)
-gpgpu_operand_collector_num_out_ports_sfu                    1 # number of collector unit in ports (default = 1)
-gpgpu_operand_collector_num_out_ports_mem                    1 # number of collector unit in ports (default = 1)
-gpgpu_operand_collector_num_out_ports_gen                    0 # number of collector unit in ports (default = 0)
-gpgpu_coalesce_arch                   13 # Coalescing arch (default = 13, anything else is off for now)
-gpgpu_num_sched_per_core                    2 # Number of warp schedulers per core
-gpgpu_max_insn_issue_per_warp                    1 # Max number of instructions that can be issued per warp in one cycle by scheduler
-gpgpu_simt_core_sim_order                    1 # Select the simulation order of cores in a cluster (0=Fix, 1=Round-Robin)
-gpgpu_pipeline_widths        2,1,1,2,1,1,2 # Pipeline widths ID_OC_SP,ID_OC_SFU,ID_OC_MEM,OC_EX_SP,OC_EX_SFU,OC_EX_MEM,EX_WB
-gpgpu_num_sp_units                     2 # Number of SP units (default=1)
-gpgpu_num_sfu_units                    1 # Number of SF units (default=1)
-gpgpu_num_mem_units                    1 # Number if ldst units (default=1) WARNING: not hooked up to anything
-gpgpu_scheduler                      lrr # Scheduler configuration: < lrr | gto | two_level_active > If two_level_active:<num_active_warps>:<inner_prioritization>:<outer_prioritization>For complete list of prioritization values see shader.h enum scheduler_prioritization_typeDefault: gto
-gpgpu_dram_scheduler                    1 # 0 = fifo, 1 = FR-FCFS (defaul)
-gpgpu_dram_partition_queues              8:8:8:8 # i2$:$2d:d2$:$2i
-l2_ideal                               0 # Use a ideal L2 cache that always hit
-gpgpu_cache:dl2     64:128:16,L:B:m:W,A:32:4,4 # unified banked L2 data cache config  {<nsets>:<bsize>:<assoc>,<rep>:<wr>:<alloc>:<wr_alloc>,<mshr>:<N>:<merge>,<mq>}
-gpgpu_cache:dl2_texture_only                    0 # L2 cache used for texture only
-gpgpu_n_mem                            5 # number of memory modules (e.g. memory controllers) in gpu
-gpgpu_n_mem_per_ctrlr                    2 # number of memory chips per memory controller
-gpgpu_memlatency_stat                   14 # track and display latency statistics 0x2 enables MC, 0x4 enables queue logs
-gpgpu_frfcfs_dram_sched_queue_size                   16 # 0 = unlimited (default); # entries per chip
-gpgpu_dram_return_queue_size                    0 # 0 = unlimited (default); # entries per chip
-gpgpu_dram_buswidth                    4 # default = 4 bytes (8 bytes per cycle at DDR)
-gpgpu_dram_burst_length                    8 # Burst length of each DRAM request (default = 4 data bus cycle)
-dram_data_command_freq_ratio                    4 # Frequency ratio between DRAM data bus and command bus (default = 2 times, i.e. DDR)
-gpgpu_dram_timing_opt nbk=16:CCD=2:RRD=6:RCD=12:RAS=28:RP=12:RC=40: CL=12:WL=4:CDLR=5:WR=12:nbkgrp=4:CCDL=3:RTPL=2 # DRAM timing parameters = {nbk:tCCD:tRRD:tRCD:tRAS:tRP:tRC:CL:WL:tCDLR:tWR:nbkgrp:tCCDL:tRTPL}
-rop_latency                           60 # ROP queue latency (default 85)
-dram_latency                          50 # DRAM latency (default 30)
-gpgpu_mem_addr_mapping dramid@8;00000000.00000000.00000000.00000000.0000RRRR.RRRRRRRR.BBBBCCCC.CCSSSSSS # mapping memory address to dram model {dramid@<start bit>;<memory address map>}
-gpgpu_mem_addr_test                    0 # run sweep test to check address mapping for aliased address
-gpgpu_mem_address_mask                    1 # 0 = old addressing mask, 1 = new addressing mask, 2 = new add. mask + flipped bank sel and chip sel bits
-gpuwattch_xml_file         gpuwattch.xml # GPUWattch XML file
-power_simulation_enabled                    1 # Turn on power simulator (1=On, 0=Off)
-power_per_cycle_dump                    0 # Dump detailed power output each cycle
-power_trace_enabled                    1 # produce a file for the power trace (1=On, 0=Off)
-power_trace_zlevel                     6 # Compression level of the power trace output log (0=no comp, 9=highest)
-steady_power_levels_enabled                    0 # produce a file for the steady power levels (1=On, 0=Off)
-steady_state_definition                  8:4 # allowed deviation:number of samples
-gpgpu_max_cycle                        0 # terminates gpu simulation early (0 = no limit)
-gpgpu_max_insn                         0 # terminates gpu simulation early (0 = no limit)
-gpgpu_max_cta                          0 # terminates gpu simulation early (0 = no limit)
-gpgpu_runtime_stat                   500 # display runtime statistics such as dram utilization {<freq>:<flag>}
-gpgpu_flush_l1_cache                    0 # Flush L1 cache at the end of each kernel call
-gpgpu_flush_l2_cache                    0 # Flush L2 cache at the end of each kernel call
-gpgpu_deadlock_detect                    1 # Stop the simulation at deadlock (1=on (default), 0=off)
-gpgpu_ptx_instruction_classification                    0 # if enabled will classify ptx instruction types per kernel (Max 255 kernels now)
-gpgpu_ptx_sim_mode                     0 # Select between Performance (default) or Functional simulation (1)
-gpgpu_clock_domains 300.0:600.0:300.0:900.0 # Clock Domain Frequencies in MhZ {<Core Clock>:<ICNT Clock>:<L2 Clock>:<DRAM Clock>}
-gpgpu_max_concurrent_kernel                    8 # maximum kernels that can run concurrently on GPU
-gpgpu_cflog_interval                    0 # Interval between each snapshot in control flow logger
-visualizer_enabled                     0 # Turn on visualizer output (1=On, 0=Off)
-visualizer_outputfile                 NULL # Specifies the output log file for visualizer
-visualizer_zlevel                      6 # Compression level of the visualizer output log (0=no comp, 9=highest)
-trace_enabled                          0 # Turn on traces
-trace_components                    none # comma seperated list of traces to enable. Complete list found in trace_streams.tup. Default none
-trace_sampling_core                    0 # The core which is printed using CORE_DPRINTF. Default 0
-enable_ptx_file_line_stats                    1 # Turn on PTX source line statistic profiling. (1 = On)
-ptx_line_stats_filename gpgpu_inst_stats.txt # Output file for PTX source line statistics.
-save_embedded_ptx                      0 # saves ptx files embedded in binary as <n>.ptx
-keep                                   0 # keep intermediate files created by GPGPU-Sim when interfacing with external programs
-gpgpu_ptx_save_converted_ptxplus                    0 # Saved converted ptxplus to a file
-ptx_opcode_latency_int         4,13,4,5,145 # Opcode latencies for integers <ADD,MAX,MUL,MAD,DIV>Default 1,1,19,25,145
-ptx_opcode_latency_fp          4,13,4,5,39 # Opcode latencies for single precision floating points <ADD,MAX,MUL,MAD,DIV>Default 1,1,1,1,30
-ptx_opcode_latency_dp         8,19,8,8,330 # Opcode latencies for double precision floating points <ADD,MAX,MUL,MAD,DIV>Default 8,8,8,8,335
-ptx_opcode_initiation_int            1,2,2,1,8 # Opcode initiation intervals for integers <ADD,MAX,MUL,MAD,DIV>Default 1,1,4,4,32
-ptx_opcode_initiation_fp            1,2,1,1,4 # Opcode initiation intervals for single precision floating points <ADD,MAX,MUL,MAD,DIV>Default 5dd6ddd6adf6f33472a61963632ef515  /tmp/tmp.3tMhef9sRg/histo__SIZE1_1
1,1,1,1,5
-ptx_opcode_initiation_dp         8,16,8,8,130 # Opcode initiation intervals for double precision floating points <ADD,MAX,MUL,MAD,DIV>Default 8,8,8,8,130
DRAM Timing Options:
nbk                                    16 # number of banks
CCD                                     2 # column to column delay
RRD                                     6 # minimal delay between activation of rows in different banks
RCD                                    12 # row to column delay
RAS                                    28 # time needed to activate row
RP                                     12 # time needed to precharge (deactivate) row
RC                                     40 # row cycle time
CDLR                                    5 # switching from write to read (changes tWTR)
WR                                     12 # last data-in to row precharge
CL                                     12 # CAS latency
WL                                      4 # Write latency
nbkgrp                                  4 # number of bank groups
CCDL                                    3 # column to column delay between accesses to different bank groups
RTPL                                    2 # read to precharge delay between accesses to different bank groups
addr_dec_mask[CHIP]  = 0000000000000000 	high:64 low:0
addr_dec_mask[BK]    = 000000000000f000 	high:16 low:12
addr_dec_mask[ROW]   = 000000000fff0000 	high:28 low:16
addr_dec_mask[COL]   = 0000000000000fff 	high:12 low:0
addr_dec_mask[BURST] = 000000000000003f 	high:6 low:0
*** Initializing Memory Statistics ***
self exe links to: /tmp/tmp.3tMhef9sRg/histo__SIZE1_1
Running md5sum using "md5sum /tmp/tmp.3tMhef9sRg/histo__SIZE1_1 "
Running cuobjdump using "$CUDA_INSTALL_PATH/bin/cuobjdump -ptx -elf -sass /tmp/tmp.3tMhef9sRg/histo__SIZE1_1 > _cuobjdump_complete_output_LpSvGM"
Parsing file _cuobjdump_complete_output_LpSvGM
######### cuobjdump parser ########
## Adding new section PTX
Adding ptx filename: _cuobjdump_1.ptx
Adding arch: sm_13
Adding identifier: benchmarks/histo/histo.cu
## Adding new section ELF
Adding arch: sm_13
Adding identifier: benchmarks/histo/histo.cu
Done parsing!!!
Adding _cuobjdump_1.ptx with cubin handle 1
Running: cat _ptx_oXzczZ | sed 's/.version 1.5/.version 1.4/' | sed 's/, texmode_independent//' | sed 's/\(\.extern \.const\[1\] .b8 \w\+\)\[\]/\1\[1\]/' | sed 's/const\[.\]/const\[0\]/g' > _ptx2_kaTVrc

kernel '_Z20histo_prescan_kernelPjiS_' transfer to GPU hardware scheduler
kernel_name = _Z20histo_prescan_kernelPjiS_ 
kernel_launch_uid = 1 
gpu_sim_cycle = 13070
gpu_sim_insn = 5500864
gpu_ipc =     420.8771
gpu_tot_sim_cycle = 13070
gpu_tot_sim_insn = 5500864
gpu_tot_ipc =     420.8771
gpu_tot_issued_cta = 0
gpu_stall_dramfull = 10988
gpu_stall_icnt2sh    = 34102
gpu_total_sim_rate=458405
Cache L1D_000:	Size = 16384 B (32 Set x 4-way x 128 byte line)
		Access = 1528, Miss = 776 (0.508), PendingHit = 358 (0.234)
Cache L1D_001:	Size = 16384 B (32 Set x 4-way x 128 byte line)
		Access = 1402, Miss = 758 (0.541), PendingHit = 436 (0.311)
Cache L1D_002:	Size = 16384 B (32 Set x 4-way x 128 byte line)
		Access = 1524, Miss = 752 (0.493), PendingHit = 444 (0.291)
Cache L1D_003:	Size = 16384 B (32 Set x 4-way x 128 byte line)
		Access = 1526, Miss = 771 (0.505), PendingHit = 345 (0.226)
Cache L1D_004:	Size = 16384 B (32 Set x 4-way x 128 byte line)
		Access = 1016, Miss = 447 (0.44), PendingHit = 237 (0.233)
Cache L1D_005:	Size = 16384 B (32 Set x 4-way x 128 byte line)
		Access = 1398, Miss = 752 (0.538), PendingHit = 355 (0.254)
Cache L1D_006:	Size = 16384 B (32 Set x 4-way x 128 byte line)
		Access = 1532, Miss = 876 (0.572), PendingHit = 347 (0.227)
Cache L1D_007:	Size = 16384 B (32 Set x 4-way x 128 byte line)
		Access = 762, Miss = 553 (0.726), PendingHit = 6 (0.00787)
Cache L1D_008:	Size = 16384 B (32 Set x 4-way x 128 byte line)
		Access = 762, Miss = 469 (0.615), PendingHit = 57 (0.0748)
Cache L1D_009:	Size = 16384 B (32 Set x 4-way x 128 byte line)
		Access = 762, Miss = 374 (0.491), PendingHit = 142 (0.186)
Cache L1D_010:	Size = 16384 B (32 Set x 4-way x 128 byte line)
		Access = 766, Miss = 388 (0.507), PendingHit = 267 (0.349)
Cache L1D_011:	Size = 16384 B (32 Set x 4-way x 128 byte line)
		Access = 1526, Miss = 839 (0.55), PendingHit = 301 (0.197)
Cache L1D_012:	Size = 16384 B (32 Set x 4-way x 128 byte line)
		Access = 762, Miss = 386 (0.507), PendingHit = 97 (0.127)
Cache L1D_013:	Size = 16384 B (32 Set x 4-way x 128 byte line)
		Access = 762, Miss = 466 (0.612), PendingHit = 69 (0.0906)
total_dl1_misses=8607
total_dl1_accesses=16028
total_dl1_miss_rate= 0.536998
Shader 0 dynamic_warp_id issue ditsribution:
dynamic_warp_id:
0, 1, 2, 3, 4, 5, 6, 7, 8, 9, 10, 11, 12, 13, 14, 15, 16, 17, 18, 19, 20, 21, 22, 23, 24, 25, 26, 27, 28, 29, 30, 31, 32, 33, 34, 35, 36, 37, 38, 39, 40, 41, 42, 43, 44, 45, 46, 47, 48, 49, 50, 51, 52, 53, 54, 55, 56, 57, 58, 59, 60, 61, 62, 63, 64, 65, 66, 67, 68, 69, 70, 71, 72, 73, 74, 75, 76, 77, 78, 79, 80, 81, 82, 83, 84, 85, 86, 87, 88, 89, 90, 91, 92, 93, 94, 95, 
distro:
269, 201, 188, 188, 175, 175, 175, 175, 162, 162, 162, 162, 162, 162, 162, 162, 269, 201, 188, 188, 175, 175, 175, 175, 162, 162, 162, 162, 162, 162, 162, 162, 269, 201, 188, 188, 175, 175, 175, 175, 162, 162, 162, 162, 162, 162, 162, 162, 269, 201, 188, 188, 175, 175, 175, 175, 162, 162, 162, 162, 162, 162, 162, 162, 269, 201, 188, 188, 175, 175, 175, 175, 162, 162, 162, 162, 162, 162, 162, 162, 269, 201, 188, 188, 175, 175, 175, 175, 162, 162, 162, 162, 162, 162, 162, 162, 
gpgpu_n_tot_thrd_icount = 5820416
gpgpu_n_tot_w_icount = 181888
gpgpu_n_icache_hits = 104640
gpgpu_n_icache_misses = 3198
gpgpu_n_l1dcache_read_hits = 3960
gpgpu_n_l1dcache_read_misses = 12068
gpgpu_n_l1dcache_write_accesses = 0
gpgpu_n_l1dcache_wirte_misses = 0
gpgpu_n_tcache_hits = 0
gpgpu_n_tcache_misses = 0
gpgpu_n_ccache_hits = 2688
gpgpu_n_ccache_misses = 448
gpgpu_n_stall_shd_mem = 36407
gpgpu_n_mem_read_local = 0
gpgpu_n_mem_write_local = 0
gpgpu_n_mem_read_global = 8735
gpgpu_n_mem_write_global = 0
gpgpu_n_mem_texture = 0
gpgpu_n_mem_const = 14
gpgpu_n_load_insn  = 518144
gpgpu_n_store_insn = 0
gpgpu_n_shmem_insn = 782208
gpgpu_n_tex_insn = 0
gpgpu_n_const_mem_insn = 0
gpgpu_n_param_mem_insn = 196736
gpgpu_n_shmem_bkconflict = 0
gpgpu_n_cache_bkconflict = 0
gpgpu_n_intrawarp_mshr_merge = 0
gpgpu_n_cmem_portconflict = 1235
gpgpu_stall_shd_mem[c_mem][bk_conf] = 1235
gpgpu_stall_shd_mem[c_mem][mshr_rc] = 0
gpgpu_stall_shd_mem[c_mem][icnt_rc] = 0
gpgpu_stall_shd_mem[t_mem][mshr_rc] = 0
gpgpu_stall_shd_mem[t_mem][icnt_rc] = 0
gpgpu_stall_shd_mem[s_mem][bk_conf] = 0
gpgpu_stall_shd_mem[gl_mem][bk_conf] = 0
gpgpu_stall_shd_mem[gl_mem][coal_stall] = 35172
gpgpu_stall_shd_mem[g_mem_ld][mshr_rc] = 0
gpgpu_stall_shd_mem[g_mem_ld][icnt_rc] = 0
gpgpu_stall_shd_mem[g_mem_ld][wb_icnt_rc] = 0
gpgpu_stall_shd_mem[g_mem_ld][wb_rsrv_fail] = 0
gpgpu_stall_shd_mem[g_mem_st][mshr_rc] = 0
gpgpu_stall_shd_mem[g_mem_st][icnt_rc] = 0
gpgpu_stall_shd_mem[g_mem_st][wb_icnt_rc] = 0
gpgpu_stall_shd_mem[g_mem_st][wb_rsrv_fail] = 0
gpgpu_stall_shd_mem[l_mem_ld][mshr_rc] = 0
gpgpu_stall_shd_mem[l_mem_ld][icnt_rc] = 0
gpgpu_stall_shd_mem[l_mem_ld][wb_icnt_rc] = 0
gpgpu_stall_shd_mem[l_mem_ld][wb_rsrv_fail] = 0
gpgpu_stall_shd_mem[l_mem_st][mshr_rc] = 0
gpgpu_stall_shd_mem[l_mem_st][icnt_rc] = 0
gpgpu_stall_shd_mem[l_mem_ld][wb_icnt_rc] = 0
gpgpu_stall_shd_mem[l_mem_ld][wb_rsrv_fail] = 0
gpu_reg_bank_conflict_stalls = 0
Warp Occupancy Distribution:
Stall:55391	W0_Idle:28225	W0_Scoreboard:26874	W1:1472	W2:512	W3:0	W4:512	W5:0	W6:0	W7:1088	W8:512	W9:0	W10:0	W11:0	W12:0	W13:0	W14:0	W15:0	W16:512	W17:0	W18:0	W19:0	W20:0	W21:0	W22:0	W23:0	W24:0	W25:0	W26:0	W27:0	W28:0	W29:0	W30:0	W31:0	W32:177280
maxmrqlatency = 55 
maxdqlatency = 0 
maxmflatency = 605 
averagemflatency = 204 
max_icnt2mem_latency = 467 
max_icnt2sh_latency = 31 
mrq_lat_table:2358 	146 	372 	836 	336 	73 	0 	0 	0 	0 	0 	0 	0 	0 	0 	0 	0 	0 	0 	0 	0 	0 	0 	0 	0 	0 	0 	0 	0 	0 	0 	0 	
dq_lat_table:0 	0 	0 	0 	0 	0 	0 	0 	0 	0 	0 	0 	0 	0 	0 	0 	0 	0 	0 	0 	0 	0 	0 	0 	0 	0 	0 	0 	0 	0 	0 	0 	
mf_lat_table:0 	0 	0 	0 	0 	0 	1924 	4073 	2733 	19 	0 	0 	0 	0 	0 	0 	0 	0 	0 	0 	0 	0 	0 	0 	0 	0 	0 	0 	0 	0 	0 	0 	
icnt2mem_lat_table:223 	3443 	354 	251 	417 	786 	1778 	1564 	87 	0 	0 	0 	0 	0 	0 	0 	0 	0 	0 	0 	0 	0 	0 	0 	
icnt2sh_lat_table:128 	645 	1392 	6138 	446 	0 	0 	0 	0 	0 	0 	0 	0 	0 	0 	0 	0 	0 	0 	0 	0 	0 	0 	0 	
mf_lat_pw_table:0 	0 	0 	0 	0 	0 	9 	7 	4 	0 	0 	0 	0 	0 	0 	0 	0 	0 	0 	0 	0 	0 	0 	0 	0 	0 	0 	0 	0 	0 	0 	0 	
maximum concurrent accesses to same row:
dram[0]:         8         5         4         5         4         3         4         4         8         4         4         9         4         7         5         4 
dram[1]:         5         5         4         5         4         3         4         4         8         4         6        10         4         6         4         4 
dram[2]:        10         7         4         6         4         4         4         4         8         4         4        10         4         5         5         3 
dram[3]:         8         7         4         6         4         4         3         4         8         4         4        12         4         6         3         3 
dram[4]:         8         6         4         6         4         4         4         4         8         4         2        11         4         6         4         4 
maximum service time to same row:
dram[0]:      3491      6343      1034      1259      6572      5536      1098      7965      5249      1056      7994      4922      1067      5595      5515      1081 
dram[1]:      3537      6312      1038      1146      6584      5550      1100      7967      5261      1074      7996      4885      1072      5587      5087      1042 
dram[2]:      5197      6435      1040      1141      6582      5567      1103      7925      5380      1036      8010      4897      1085      5503      5063      1044 
dram[3]:      5216      6435      1042      4045      6635      5849      1130      7869      5266      1051      8012      4973      1063      5521      5204      1046 
dram[4]:      4067      6319      1044      1248      6637      5643      1114      7883      5446      1053      8014      4841      1065      5482      5065      1064 
average row accesses per activate:
dram[0]:  4.500000  2.000000  2.093750  2.888889  2.250000  1.729730  1.950000  1.900000  2.193548  1.812500  2.285714  2.321429  1.942857  4.000000  1.783784  1.600000 
dram[1]:  3.857143  2.161290  1.861111  2.454545  2.550000  1.763158  1.944444  2.157895  1.911765  1.848485  3.000000  2.357143  2.031250  2.400000  2.093750  1.805556 
dram[2]:  6.500000  1.888889  1.777778  2.454545  2.173913  1.888889  2.266667  1.954545  2.133333  1.794118  2.142857  1.942857  2.066667  2.600000  1.882353  1.789474 
dram[3]:  3.250000  1.861111  1.911765  2.181818  2.428571  1.861111  1.700000  2.368421  1.911765  1.818182  2.500000  2.266667  1.722222  3.111111  1.857143  1.619048 
dram[4]:  3.714286  1.828571  1.595238  2.200000  2.291667  1.777778  1.761905  1.909091  1.942857  1.781250  1.736842  2.166667  1.710526  2.600000  2.000000  1.805556 
average row locality = 4121/2053 = 2.007306
number of total memory accesses made:
dram[0]:         0         0         0         0         0         0         0         0         0         0         0         0         0         0         0         0 
dram[1]:         0         0         0         0         0         0         0         0         0         0         0         0         0         0         0         0 
dram[2]:         0         0         0         0         0         0         0         0         0         0         0         0         0         0         0         0 
dram[3]:         0         0         0         0         0         0         0         0         0         0         0         0         0         0         0         0 
dram[4]:         0         0         0         0         0         0         0         0         0         0         0         0         0         0         0         0 
total accesses: 0
min_bank_accesses = 0!
min_chip_accesses = 0!
number of total read accesses:
dram[0]:        27        64        67        26        54        64        39        38        68        58        32        65        68        24        66        64 
dram[1]:        27        67        67        27        51        67        35        41        65        61        30        66        65        24        67        65 
dram[2]:        26        68        64        27        50        68        34        43        64        61        30        68        62        26        64        68 
dram[3]:        26        67        65        24        51        67        34        45        65        60        30        68        62        28        65        68 
dram[4]:        26        64        67        22        55        64        37        42        68        57        33        65        65        26        68        65 
total reads: 4121
bank skew: 68/22 = 3.09
chip skew: 825/823 = 1.00
number of total write accesses:
dram[0]:         0         0         0         0         0         0         0         0         0         0         0         0         0         0         0         0 
dram[1]:         0         0         0         0         0         0         0         0         0         0         0         0         0         0         0         0 
dram[2]:         0         0         0         0         0         0         0         0         0         0         0         0         0         0         0         0 
dram[3]:         0         0         0         0         0         0         0         0         0         0         0         0         0         0         0         0 
dram[4]:         0         0         0         0         0         0         0         0         0         0         0         0         0         0         0         0 
total reads: 0
min_bank_accesses = 0!
min_chip_accesses = 0!
average mf latency per bank:
dram[0]:        376       280       448       461       239       511       473       237       447       495       230       386       506       256       310       497
dram[1]:        312       312       470       476       264       531       487       257       454       496       254       403       509       266       332       504
dram[2]:        365       289       548       472       257       562       538       231       527       547       228       427       588       247       334       538
dram[3]:        386       294       571       890       242       582       532       212       568       570       215       467       640       222       319       565
dram[4]:        421       321       551       602       257       586       548       236       561       583       236       496       604       255       342       589
maximum mf latency per bank:
dram[0]:        348       354       395       415       319       424       384       199       389       351       191       386       413       333       391       421
dram[1]:        359       337       429       404       313       406       384       261       456       414       268       419       387       327       374       421
dram[2]:        419       332       400       420       313       441       399       208       453       441       180       383       410       365       423       461
dram[3]:        449       347       405       494       300       446       425       154       463       482       161       412       541       368       407       471
dram[4]:        594       347       476       605       387       501       475       210       498       462       200       529       560       460       522       564

Number of Memory Banks Accessed per Memory Operation per Warp (from 0):
0	0	0	0	0	0	0	0	0	0	0	0	0	0	0	0	0	0	0	0	0	0	0	0	0	0	0	0	0	0	0	0	0	0	0	0	0	0	0	0	0	0	0	0	0	0	0	0	0	0	0	0	0	0	0	0	0	0	0	0	0	0	0	0	0	0	0	0	0	0	0	0	0	0	0	0	0	0	0	0	
Average # of Memory Banks Accessed per Memory Operation per Warp=-nan

position of mrq chosen
0	0	0	0	0	0	0	0	0	0	0	0	0	0	0	0	

average position of mrq chosen = -nan
gpgpu_l2_write_miss = 0
gpgpu_l2_write_access = 0
gpgpu_l2_read_miss = 0
gpgpu_l2_read_access = 0
Cache L2_bank_000:
MSHR contents

DRAM[0]: 16 bks, busW=4 BL=8 CL=12, tRRD=2 tCCD=6, tRCD=12 tRAS=28 tRP=12 tRC=40
n_cmd=39207 n_nop=36767 n_act=404 n_pre=388 n_req=824 n_rd=1648 n_write=0 bw_util=0.08407
n_activity=7585 dram_eff=0.4345
bk0: 54a 38681i bk1: 128a 38491i bk2: 134a 38147i bk3: 52a 38550i bk4: 108a 38625i bk5: 128a 38020i bk6: 78a 38386i bk7: 76a 38628i bk8: 136a 38117i bk9: 116a 38166i bk10: 64a 38705i bk11: 130a 38234i bk12: 136a 37846i bk13: 48a 38358i bk14: 132a 37410i bk15: 128a 34711i 
dram_util_bins: 0 0 0 0 0 0 0 0 0 0
dram_eff_bins: 0 0 0 0 0 0 0 0 0 0
mrqq: max=10 avg=0.308083
Cache L2_bank_001:
MSHR contents

DRAM[1]: 16 bks, busW=4 BL=8 CL=12, tRRD=2 tCCD=6, tRCD=12 tRAS=28 tRP=12 tRC=40
n_cmd=39207 n_nop=36781 n_act=396 n_pre=380 n_req=825 n_rd=1650 n_write=0 bw_util=0.08417
n_activity=7067 dram_eff=0.467
bk0: 54a 38630i bk1: 134a 38465i bk2: 134a 38175i bk3: 54a 38513i bk4: 102a 38612i bk5: 134a 38040i bk6: 70a 38342i bk7: 82a 38690i bk8: 130a 38055i bk9: 122a 38131i bk10: 60a 38690i bk11: 132a 38229i bk12: 130a 37930i bk13: 48a 38331i bk14: 134a 37406i bk15: 130a 34975i 
dram_util_bins: 0 0 0 0 0 0 0 0 0 0
dram_eff_bins: 0 0 0 0 0 0 0 0 0 0
mrqq: max=12 avg=0.369041
Cache L2_bank_002:
MSHR contents

DRAM[2]: 16 bks, busW=4 BL=8 CL=12, tRRD=2 tCCD=6, tRCD=12 tRAS=28 tRP=12 tRC=40
n_cmd=39207 n_nop=36759 n_act=409 n_pre=393 n_req=823 n_rd=1646 n_write=0 bw_util=0.08396
n_activity=7725 dram_eff=0.4261
bk0: 52a 38715i bk1: 136a 38486i bk2: 128a 38147i bk3: 54a 38618i bk4: 100a 38571i bk5: 136a 38097i bk6: 68a 38458i bk7: 86a 38612i bk8: 128a 38156i bk9: 122a 38175i bk10: 60a 38690i bk11: 136a 38216i bk12: 124a 37983i bk13: 52a 38417i bk14: 128a 37296i bk15: 136a 34489i 
dram_util_bins: 0 0 0 0 0 0 0 0 0 0
dram_eff_bins: 0 0 0 0 0 0 0 0 0 0
mrqq: max=12 avg=0.318591
Cache L2_bank_003:
MSHR contents

DRAM[3]: 16 bks, busW=4 BL=8 CL=12, tRRD=2 tCCD=6, tRCD=12 tRAS=28 tRP=12 tRC=40
n_cmd=39207 n_nop=36739 n_act=417 n_pre=401 n_req=825 n_rd=1650 n_write=0 bw_util=0.08417
n_activity=7864 dram_eff=0.4196
bk0: 52a 38698i bk1: 134a 38553i bk2: 130a 38136i bk3: 48a 38554i bk4: 102a 38592i bk5: 134a 38095i bk6: 68a 38392i bk7: 90a 38713i bk8: 130a 38184i bk9: 120a 38126i bk10: 60a 38667i bk11: 136a 38239i bk12: 124a 37990i bk13: 56a 38398i bk14: 130a 37394i bk15: 136a 34317i 
dram_util_bins: 0 0 0 0 0 0 0 0 0 0
dram_eff_bins: 0 0 0 0 0 0 0 0 0 0
mrqq: max=12 avg=0.303543
Cache L2_bank_004:
MSHR contents

DRAM[4]: 16 bks, busW=4 BL=8 CL=12, tRRD=2 tCCD=6, tRCD=12 tRAS=28 tRP=12 tRC=40
n_cmd=39207 n_nop=36713 n_act=431 n_pre=415 n_req=824 n_rd=1648 n_write=0 bw_util=0.08407
n_activity=7497 dram_eff=0.4396
bk0: 52a 38640i bk1: 128a 38466i bk2: 134a 37971i bk3: 44a 38479i bk4: 110a 38556i bk5: 128a 38071i bk6: 74a 38379i bk7: 84a 38643i bk8: 136a 38108i bk9: 114a 38175i bk10: 66a 38693i bk11: 130a 38058i bk12: 130a 37797i bk13: 52a 38387i bk14: 136a 37485i bk15: 130a 34408i 
dram_util_bins: 0 0 0 0 0 0 0 0 0 0
dram_eff_bins: 0 0 0 0 0 0 0 0 0 0
mrqq: max=12 avg=0.335807
Cache L2_bank_000:	Size = 131072 B (64 Set x 16-way x 128 byte line)
		Access = 1756, Miss = 824 (0.469), PendingHit = 3 (0.00171)
Cache L2_bank_001:	Size = 131072 B (64 Set x 16-way x 128 byte line)
		Access = 1762, Miss = 825 (0.468), PendingHit = 7 (0.00397)
Cache L2_bank_002:	Size = 131072 B (64 Set x 16-way x 128 byte line)
		Access = 1753, Miss = 823 (0.469), PendingHit = 6 (0.00342)
Cache L2_bank_003:	Size = 131072 B (64 Set x 16-way x 128 byte line)
		Access = 1882, Miss = 825 (0.438), PendingHit = 6 (0.00319)
Cache L2_bank_004:	Size = 131072 B (64 Set x 16-way x 128 byte line)
		Access = 1750, Miss = 824 (0.471), PendingHit = 1 (0.000571)
L2 Cache Total Miss Rate = 0.463

icnt_total_pkts_mem_to_simt=44103
icnt_total_pkts_simt_to_mem=8903

LD_mem_lat_dist  0 0 0 0 0 0 0 0 0 0 0 0 0 0 0 0 0 0 0 0 0 0 0 0 0 0 0
ST_mem_lat_dist  0 0 0 0 0 0 0 0 0 0 0 0 0 0 0 0 0 0 0 0 0 0 0 0 0 0 0
Traffic 0 Stat
%=================================
% Average latency = 72.7847
% Accepted packets = 0 at node 0 (avg = 0.0150217)
lat(1) = 72.7847;
thru(1,:) = [ 0 0 0 0 0 0 0 0 0 0 0 0 0 0 0.0671793 0.0674089 0.0670645 0.0768966 0.0669498 0 0 0 0 ];
% latency change    = 1
% throughput change = 1
Traffic 1 Stat
%=================================
% Average latency = 16.8168
% Accepted packets = 0 at node 14 (avg = 0.0733586)
lat(2) = 16.8168;
thru(2,:) = [ 0.151574 0.148131 0.146983 0.150618 0.0883354 0.146983 0.170703 0.108459 0.0923907 0.0742186 0.0768966 0.163625 0.076514 0.0918168 0 0 0 0 0 0 0 0 0 ];
% latency change    = 3.32809
% throughput change = 0.795229
----------------------------Interconnect-DETAILS---------------------------------=======Traffic[0]class0 ======
Traffic[0]class0Overall average latency = 72.7847 (1 samples)
Traffic[0]class0Overall average accepted rate = 0.0150217 (1 samples)
Traffic[0]class0Overall min accepted rate = 0 (1 samples)
traffic_manager/latency_stat_0_freq = [ 0 4168 600 55 21 20 11 16 8 18 14 25 9 22 8 19 6 35 9 22 4 25 11 30 10 21 8 24 9 27 10 16 7 21 6 19 9 26 2 19 8 22 6 24 4 18 7 12 8 24 5 22 9 23 9 23 13 33 9 20 3 12 14 24 7 17 4 22 9 16 12 27 12 17 5 20 6 22 8 12 8 16 6 27 4 26 8 31 8 24 3 14 8 20 7 21 5 19 6 17 6 16 3 23 2 18 7 25 6 22 9 14 14 19 4 18 8 26 1 19 6 24 3 17 11 26 12 22 6 17 6 31 7 18 15 16 10 18 12 16 4 18 9 21 3 18 15 28 6 21 7 12 10 30 3 23 2 16 7 21 9 23 4 19 5 15 5 23 3 25 7 18 11 21 6 19 3 18 5 27 7 28 5 17 4 32 4 26 3 18 8 18 4 17 3 22 5 16 6 20 3 28 5 17 10 24 6 28 4 26 4 17 3 14 4 20 3 23 6 17 2 29 6 18 3 18 3 19 1 28 8 13 5 14 3 22 3 17 7 27 4 17 2 17 0 12 2 17 0 15 5 11 2 11 1 13 2 11 2 14 2 14 3 15 1 4 0 11 2 11 1 6 2 10 2 13 3 6 1 9 1 14 2 6 1 6 1 4 2 8 5 13 1 12 2 9 3 9 1 8 2 12 2 6 1 10 2 14 2 5 0 12 2 5 4 9 2 8 2 5 0 6 0 7 2 4 1 4 2 6 0 7 0 7 0 5 2 4 0 6 1 5 1 4 1 3 0 2 0 4 0 4 0 4 1 2 2 4 0 1 0 5 0 4 2 4 0 3 2 1 1 2 0 6 2 3 1 8 0 5 1 3 0 7 0 3 1 2 0 4 1 1 0 3 1 6 0 1 2 4 0 3 0 5 0 3 0 5 0 5 0 1 0 2 0 2 0 5 0 4 0 5 1 1 1 3 1 4 0 4 0 3 0 3 3 1 0 0 1 1 1 2 0 4 0 2 0 1 2 4 0 3 0 2 1 0 0 1 0 0 0 3 0 2 0 0 0 1 0 3 0 4 0 2 0 1 0 0 0 0 1 1 0 1 0 1 0 1 0 3 0 1 0 0 0 0 0 1 0 0 0 0 0 0 0 0 0 2 0 1 0 1 0 1 0 0 0 0 0 0 0 1 0 0 0 1 0 0 0 0 0 0 0 0 0 0 0 0 0 0 0 0 0 0 0 0 0 0 0 0 0 0 0 0 0 0 0 0 0 0 0 0 0 0 0 0 0 0 0 0 0 0 0 0 0 1 0 0 0 0 0 1 0 0 0 0 0 0 0 0 0 0 0 0 0 0 0 0 0 0 0 0 0 0 0 0 0 0 0 0 0 0 0 0 0 0 0 0 0 0 0 0 0 0 0 0 0 0 0 0 0 0 0 0 0 0 0 0 0 0 0 0 0 0 0 0 0 0 0 0 0 0 0 0 0 0 0 0 0 0 0 0 0 0 0 0 0 0 0 0 0 0 0 0 0 0 0 0 0 0 0 0 0 0 0 0 0 0 0 0 0 0 0 0 0 0 0 0 0 0 0 0 0 0 0 0 0 0 0 0 0 0 0 0 0 0 0 0 0 0 0 0 0 0 0 0 0 0 0 0 0 0 0 0 0 0 0 0 0 0 0 0 0 0 0 0 0 0 0 0 0 0 0 0 0 0 0 0 0 0 0 0 0 0 0 0 0 0 0 0 0 0 0 0 0 0 0 0 0 0 0 0 0 0 0 0 0 0 0 0 0 0 0 0 0 0 0 0 0 0 0 0 0 0 0 0 0 0 0 0 0 0 0 0 0 0 0 0 0 0 0 0 0 0 0 0 0 0 0 0 0 0 0 0 0 0 0 0 0 0 0 0 0 0 0 0 0 0 0 0 0 0 0 0 0 0 0 0 0 0 0 0 0 0 0 0 0 0 0 0 0 0 0 0 0 0 0 0 0 0 0 0 0 0 0 0 0 0 0 0 0 0 0 0 0 0 0 0 0 0 0 0 0 0 0 0 0 0 0 0 0 0 0 0 0 0 0 0 0 0 0 0 0 0 0 0 0 0 0 0 0 0 0 0 0 0 0 0 0 0 0 0 0 0 0 0 0 0 0 0 0 0 0 0 0 0 0 0 0 0 0 0 0 0 0 0 0 0 0 0 0 0 0 0 0 0 0 0 0 0 0 0 0 0 0 0 0 0 0 0 0 0 0 0 0 0 0 0 0 0 ];
Traffic[0]class1Average hops = 1 (8903 samples)
traffic_manager/hop_stats_freq = [ 0 8903 0 0 0 0 0 0 0 0 0 0 0 0 0 0 0 0 0 0 ];
=======Traffic[1]class0 ======
Traffic[1]class0Overall average latency = 16.8168 (1 samples)
Traffic[1]class0Overall average accepted rate = 0.0733586 (1 samples)
Traffic[1]class0Overall min accepted rate = 0 (1 samples)
traffic_manager/latency_stat_0_freq = [ 0 0 128 1 1 551 161 75 231 346 174 124 153 144 312 180 3056 101 98 144 143 1463 51 37 65 60 565 22 19 29 34 240 4 7 9 11 92 2 2 2 1 32 0 1 0 6 16 0 1 0 1 3 1 0 0 0 3 0 0 0 0 1 0 0 0 0 0 0 0 0 0 0 0 0 0 0 0 0 0 0 0 0 0 0 0 0 0 0 0 0 0 0 0 0 0 0 0 0 0 0 0 0 0 0 0 0 0 0 0 0 0 0 0 0 0 0 0 0 0 0 0 0 0 0 0 0 0 0 0 0 0 0 0 0 0 0 0 0 0 0 0 0 0 0 0 0 0 0 0 0 0 0 0 0 0 0 0 0 0 0 0 0 0 0 0 0 0 0 0 0 0 0 0 0 0 0 0 0 0 0 0 0 0 0 0 0 0 0 0 0 0 0 0 0 0 0 0 0 0 0 0 0 0 0 0 0 0 0 0 0 0 0 0 0 0 0 0 0 0 0 0 0 0 0 0 0 0 0 0 0 0 0 0 0 0 0 0 0 0 0 0 0 0 0 0 0 0 0 0 0 0 0 0 0 0 0 0 0 0 0 0 0 0 0 0 0 0 0 0 0 0 0 0 0 0 0 0 0 0 0 0 0 0 0 0 0 0 0 0 0 0 0 0 0 0 0 0 0 0 0 0 0 0 0 0 0 0 0 0 0 0 0 0 0 0 0 0 0 0 0 0 0 0 0 0 0 0 0 0 0 0 0 0 0 0 0 0 0 0 0 0 0 0 0 0 0 0 0 0 0 0 0 0 0 0 0 0 0 0 0 0 0 0 0 0 0 0 0 0 0 0 0 0 0 0 0 0 0 0 0 0 0 0 0 0 0 0 0 0 0 0 0 0 0 0 0 0 0 0 0 0 0 0 0 0 0 0 0 0 0 0 0 0 0 0 0 0 0 0 0 0 0 0 0 0 0 0 0 0 0 0 0 0 0 0 0 0 0 0 0 0 0 0 0 0 0 0 0 0 0 0 0 0 0 0 0 0 0 0 0 0 0 0 0 0 0 0 0 0 0 0 0 0 0 0 0 0 0 0 0 0 0 0 0 0 0 0 0 0 0 0 0 0 0 0 0 0 0 0 0 0 0 0 0 0 0 0 0 0 0 0 0 0 0 0 0 0 0 0 0 0 0 0 0 0 0 0 0 0 0 0 0 0 0 0 0 0 0 0 0 0 0 0 0 0 0 0 0 0 0 0 0 0 0 0 0 0 0 0 0 0 0 0 0 0 0 0 0 0 0 0 0 0 0 0 0 0 0 0 0 0 0 0 0 0 0 0 0 0 0 0 0 0 0 0 0 0 0 0 0 0 0 0 0 0 0 0 0 0 0 0 0 0 0 0 0 0 0 0 0 0 0 0 0 0 0 0 0 0 0 0 0 0 0 0 0 0 0 0 0 0 0 0 0 0 0 0 0 0 0 0 0 0 0 0 0 0 0 0 0 0 0 0 0 0 0 0 0 0 0 0 0 0 0 0 0 0 0 0 0 0 0 0 0 0 0 0 0 0 0 0 0 0 0 0 0 0 0 0 0 0 0 0 0 0 0 0 0 0 0 0 0 0 0 0 0 0 0 0 0 0 0 0 0 0 0 0 0 0 0 0 0 0 0 0 0 0 0 0 0 0 0 0 0 0 0 0 0 0 0 0 0 0 0 0 0 0 0 0 0 0 0 0 0 0 0 0 0 0 0 0 0 0 0 0 0 0 0 0 0 0 0 0 0 0 0 0 0 0 0 0 0 0 0 0 0 0 0 0 0 0 0 0 0 0 0 0 0 0 0 0 0 0 0 0 0 0 0 0 0 0 0 0 0 0 0 0 0 0 0 0 0 0 0 0 0 0 0 0 0 0 0 0 0 0 0 0 0 0 0 0 0 0 0 0 0 0 0 0 0 0 0 0 0 0 0 0 0 0 0 0 0 0 0 0 0 0 0 0 0 0 0 0 0 0 0 0 0 0 0 0 0 0 0 0 0 0 0 0 0 0 0 0 0 0 0 0 0 0 0 0 0 0 0 0 0 0 0 0 0 0 0 0 0 0 0 0 0 0 0 0 0 0 0 0 0 0 0 0 0 0 0 0 0 0 0 0 0 0 0 0 0 0 0 0 0 0 0 0 0 0 0 0 0 0 0 0 0 0 0 0 0 0 0 0 0 0 0 0 0 0 0 0 0 0 0 0 0 0 0 0 0 0 0 0 0 0 0 0 0 ];
Traffic[1]class1Average hops = 1 (8903 samples)
traffic_manager/hop_stats_freq = [ 0 8903 0 0 0 0 0 0 0 0 0 0 0 0 0 0 0 0 0 0 ];
----------------------------END-of-Interconnect-DETAILS-------------------------

gpgpu_simulation_time = 0 days, 0 hrs, 0 min, 12 sec (12 sec)
gpgpu_simulation_rate = 458405 (inst/sec)
gpgpu_simulation_rate = 1089 (cycle/sec)

kernel '_Z26histo_intermediates_kernelP5uint2jjjP6uchar4' transfer to GPU hardware scheduler
kernel_name = _Z26histo_intermediates_kernelP5uint2jjjP6uchar4 
kernel_launch_uid = 2 
gpu_sim_cycle = 88167
gpu_sim_insn = 15893670
gpu_ipc =     180.2678
gpu_tot_sim_cycle = 101237
gpu_tot_sim_insn = 21394534
gpu_tot_ipc =     211.3312
gpu_tot_issued_cta = 0
gpu_stall_dramfull = 143757
gpu_stall_icnt2sh    = 102519
gpu_total_sim_rate=285260
Cache L1D_000:	Size = 16384 B (32 Set x 4-way x 128 byte line)
		Access = 3694, Miss = 2786 (0.754), PendingHit = 360 (0.0975)
Cache L1D_001:	Size = 16384 B (32 Set x 4-way x 128 byte line)
		Access = 3568, Miss = 2809 (0.787), PendingHit = 441 (0.124)
Cache L1D_002:	Size = 16384 B (32 Set x 4-way x 128 byte line)
		Access = 3690, Miss = 2856 (0.774), PendingHit = 445 (0.121)
Cache L1D_003:	Size = 16384 B (32 Set x 4-way x 128 byte line)
		Access = 5858, Miss = 4699 (0.802), PendingHit = 349 (0.0596)
Cache L1D_004:	Size = 16384 B (32 Set x 4-way x 128 byte line)
		Access = 3182, Miss = 2515 (0.79), PendingHit = 237 (0.0745)
Cache L1D_005:	Size = 16384 B (32 Set x 4-way x 128 byte line)
		Access = 5008, Miss = 3779 (0.755), PendingHit = 370 (0.0739)
Cache L1D_006:	Size = 16384 B (32 Set x 4-way x 128 byte line)
		Access = 5864, Miss = 4727 (0.806), PendingHit = 354 (0.0604)
Cache L1D_007:	Size = 16384 B (32 Set x 4-way x 128 byte line)
		Access = 5094, Miss = 4549 (0.893), PendingHit = 8 (0.00157)
Cache L1D_008:	Size = 16384 B (32 Set x 4-way x 128 byte line)
		Access = 5094, Miss = 4511 (0.886), PendingHit = 61 (0.012)
Cache L1D_009:	Size = 16384 B (32 Set x 4-way x 128 byte line)
		Access = 5094, Miss = 4415 (0.867), PendingHit = 144 (0.0283)
Cache L1D_010:	Size = 16384 B (32 Set x 4-way x 128 byte line)
		Access = 4376, Miss = 3320 (0.759), PendingHit = 277 (0.0633)
Cache L1D_011:	Size = 16384 B (32 Set x 4-way x 128 byte line)
		Access = 4414, Miss = 3284 (0.744), PendingHit = 478 (0.108)
Cache L1D_012:	Size = 16384 B (32 Set x 4-way x 128 byte line)
		Access = 2928, Miss = 2450 (0.837), PendingHit = 97 (0.0331)
Cache L1D_013:	Size = 16384 B (32 Set x 4-way x 128 byte line)
		Access = 5094, Miss = 4491 (0.882), PendingHit = 72 (0.0141)
total_dl1_misses=51191
total_dl1_accesses=62958
total_dl1_miss_rate= 0.813098
Shader 0 dynamic_warp_id issue ditsribution:
dynamic_warp_id:
0, 1, 2, 3, 4, 5, 6, 7, 8, 9, 10, 11, 12, 13, 14, 15, 16, 17, 18, 19, 20, 21, 22, 23, 24, 25, 26, 27, 28, 29, 30, 31, 32, 33, 34, 35, 36, 37, 38, 39, 40, 41, 42, 43, 44, 45, 46, 47, 48, 49, 50, 51, 52, 53, 54, 55, 56, 57, 58, 59, 60, 61, 62, 63, 64, 65, 66, 67, 68, 69, 70, 71, 72, 73, 74, 75, 76, 77, 78, 79, 80, 81, 82, 83, 84, 85, 86, 87, 88, 89, 90, 91, 92, 93, 94, 95, 96, 97, 98, 99, 100, 101, 102, 103, 104, 105, 106, 107, 108, 109, 110, 111, 112, 113, 114, 115, 116, 117, 118, 119, 120, 121, 122, 123, 124, 125, 126, 127, 128, 129, 130, 131, 132, 133, 134, 135, 136, 137, 138, 139, 140, 141, 142, 143, 
distro:
269, 201, 188, 188, 175, 175, 175, 175, 162, 162, 162, 162, 162, 162, 162, 162, 269, 201, 188, 188, 175, 175, 175, 175, 162, 162, 162, 162, 162, 162, 162, 162, 269, 201, 188, 188, 175, 175, 175, 175, 162, 162, 162, 162, 162, 162, 162, 162, 269, 201, 188, 188, 175, 175, 175, 175, 162, 162, 162, 162, 162, 162, 162, 162, 269, 201, 188, 188, 175, 175, 175, 175, 162, 162, 162, 162, 162, 162, 162, 162, 269, 201, 188, 188, 175, 175, 175, 175, 162, 162, 162, 162, 162, 162, 162, 162, 507, 507, 507, 507, 507, 507, 507, 507, 507, 507, 507, 507, 507, 507, 507, 507, 507, 507, 507, 507, 507, 507, 507, 507, 507, 507, 507, 507, 507, 507, 507, 507, 507, 507, 507, 507, 507, 507, 507, 507, 507, 507, 507, 507, 507, 507, 507, 507, 
gpgpu_n_tot_thrd_icount = 22693376
gpgpu_n_tot_w_icount = 709168
gpgpu_n_icache_hits = 368800
gpgpu_n_icache_misses = 15040
gpgpu_n_l1dcache_read_hits = 8074
gpgpu_n_l1dcache_read_misses = 54884
gpgpu_n_l1dcache_write_accesses = 154440
gpgpu_n_l1dcache_wirte_misses = 154440
gpgpu_n_tcache_hits = 0
gpgpu_n_tcache_misses = 0
gpgpu_n_ccache_hits = 55728
gpgpu_n_ccache_misses = 448
gpgpu_n_stall_shd_mem = 902322
gpgpu_n_mem_read_local = 0
gpgpu_n_mem_write_local = 0
gpgpu_n_mem_read_global = 51319
gpgpu_n_mem_write_global = 154440
gpgpu_n_mem_texture = 0
gpgpu_n_mem_const = 14
gpgpu_n_load_insn  = 1553984
gpgpu_n_store_insn = 2071680
gpgpu_n_shmem_insn = 782208
gpgpu_n_tex_insn = 0
gpgpu_n_const_mem_insn = 0
gpgpu_n_param_mem_insn = 3498476
gpgpu_n_shmem_bkconflict = 0
gpgpu_n_cache_bkconflict = 0
gpgpu_n_intrawarp_mshr_merge = 0
gpgpu_n_cmem_portconflict = 1235
gpgpu_stall_shd_mem[c_mem][bk_conf] = 1235
gpgpu_stall_shd_mem[c_mem][mshr_rc] = 0
gpgpu_stall_shd_mem[c_mem][icnt_rc] = 0
gpgpu_stall_shd_mem[t_mem][mshr_rc] = 0
gpgpu_stall_shd_mem[t_mem][icnt_rc] = 0
gpgpu_stall_shd_mem[s_mem][bk_conf] = 0
gpgpu_stall_shd_mem[gl_mem][bk_conf] = 0
gpgpu_stall_shd_mem[gl_mem][coal_stall] = 901087
gpgpu_stall_shd_mem[g_mem_ld][mshr_rc] = 0
gpgpu_stall_shd_mem[g_mem_ld][icnt_rc] = 0
gpgpu_stall_shd_mem[g_mem_ld][wb_icnt_rc] = 0
gpgpu_stall_shd_mem[g_mem_ld][wb_rsrv_fail] = 0
gpgpu_stall_shd_mem[g_mem_st][mshr_rc] = 0
gpgpu_stall_shd_mem[g_mem_st][icnt_rc] = 0
gpgpu_stall_shd_mem[g_mem_st][wb_icnt_rc] = 0
gpgpu_stall_shd_mem[g_mem_st][wb_rsrv_fail] = 0
gpgpu_stall_shd_mem[l_mem_ld][mshr_rc] = 0
gpgpu_stall_shd_mem[l_mem_ld][icnt_rc] = 0
gpgpu_stall_shd_mem[l_mem_ld][wb_icnt_rc] = 0
gpgpu_stall_shd_mem[l_mem_ld][wb_rsrv_fail] = 0
gpgpu_stall_shd_mem[l_mem_st][mshr_rc] = 0
gpgpu_stall_shd_mem[l_mem_st][icnt_rc] = 0
gpgpu_stall_shd_mem[l_mem_ld][wb_icnt_rc] = 0
gpgpu_stall_shd_mem[l_mem_ld][wb_rsrv_fail] = 0
gpu_reg_bank_conflict_stalls = 0
Warp Occupancy Distribution:
Stall:1276974	W0_Idle:334931	W0_Scoreboard:42397	W1:1472	W2:512	W3:0	W4:512	W5:0	W6:0	W7:1088	W8:512	W9:0	W10:0	W11:0	W12:0	W13:0	W14:0	W15:0	W16:512	W17:0	W18:32955	W19:0	W20:0	W21:0	W22:0	W23:0	W24:0	W25:0	W26:0	W27:0	W28:0	W29:0	W30:0	W31:0	W32:671605
maxmrqlatency = 202 
maxdqlatency = 0 
maxmflatency = 623 
averagemflatency = 249 
max_icnt2mem_latency = 1740 
max_icnt2sh_latency = 101236 
mrq_lat_table:61362 	5563 	16375 	38375 	58013 	45009 	12153 	287 	0 	0 	0 	0 	0 	0 	0 	0 	0 	0 	0 	0 	0 	0 	0 	0 	0 	0 	0 	0 	0 	0 	0 	0 	
dq_lat_table:0 	0 	0 	0 	0 	0 	0 	0 	0 	0 	0 	0 	0 	0 	0 	0 	0 	0 	0 	0 	0 	0 	0 	0 	0 	0 	0 	0 	0 	0 	0 	0 	
mf_lat_table:0 	0 	0 	0 	0 	0 	12157 	99371 	94090 	155 	0 	0 	0 	0 	0 	0 	0 	0 	0 	0 	0 	0 	0 	0 	0 	0 	0 	0 	0 	0 	0 	0 	
icnt2mem_lat_table:251 	7611 	2859 	4539 	21313 	49135 	65601 	53546 	1840 	96 	18 	0 	0 	0 	0 	0 	0 	0 	0 	0 	0 	0 	0 	0 	
icnt2sh_lat_table:128 	14487 	18033 	17050 	1628 	7 	0 	0 	0 	0 	0 	0 	0 	3713 	30904 	57628 	62195 	0 	0 	0 	0 	0 	0 	0 	
mf_lat_pw_table:0 	0 	0 	0 	0 	0 	14 	84 	98 	0 	0 	0 	0 	0 	0 	0 	0 	0 	0 	0 	0 	0 	0 	0 	0 	0 	0 	0 	0 	0 	0 	0 	
maximum concurrent accesses to same row:
dram[0]:        28        55        24        19        21        28        16        37        43        46        61       103        65        24        21        28 
dram[1]:        21        48        24        18        18        21        17        38        62        47        68        76        73        25        21        26 
dram[2]:        39        40        25        24        25        21        19        48        44        39        63        66        78        23        21        23 
dram[3]:        23        40        28        20        22        20        21        41        29        21        40        73        87        27        23        28 
dram[4]:        40        33        34        22        19        38        16        33        33        45        52        79        86        20        21        43 
maximum service time to same row:
dram[0]:      3491      6343      1125      1788      6968      5536      2227      7965      5249      2218      7994      7033      2586      5595      5515      2065 
dram[1]:      3537      6312      1038      1954      6584      5550      1952      7967      5261      2902      7996      5228      2907      5587      5087      1352 
dram[2]:      5197      6435      1126      1887      6857      5567      1103      7925      5380      1502      8010      4897      2885      5503      5063      1245 
dram[3]:      5216      6435      1900      4045      6635      5849      1130      7869      5266      1132      8012      4973      2962      5521      5204      1088 
dram[4]:      4067      6319      2223      2124      6637      5643      4269      7883      5446      3071      8014      5435      3183      5482      5065      1665 
average row accesses per activate:
dram[0]:  3.937415  4.030220  4.134199  3.877778  3.852978  4.022727  3.831788  3.965834  4.259668  3.777778  3.875328  4.146276  4.011873  4.011984  4.091781  3.917007 
dram[1]:  4.097320  4.205714  3.901235  3.887344  3.886044  4.004000  3.791885  4.035904  4.257618  3.742675  3.931035  4.359155  4.037333  4.120383  4.060976  4.171470 
dram[2]:  3.875834  3.975577  3.801325  3.830601  3.822642  3.907792  3.968579  4.053404  4.125676  3.828758  3.824836  4.250000  4.175172  3.967062  4.048715  4.096317 
dram[3]:  3.912517  3.936000  4.086648  3.835862  4.044117  3.945839  3.840000  4.170597  4.333333  3.806536  3.854545  4.195919  3.988127  3.979030  4.104905  4.052999 
dram[4]:  3.976744  3.980952  3.972222  3.792350  3.972585  3.969374  3.766927  3.969856  4.255618  3.721228  3.777637  4.191576  4.014512  3.734317  4.083784  3.983356 
average row locality = 237137/59512 = 3.984692
number of total memory accesses made:
dram[0]:         0         0         0         0         0         0         0         0         0         0         0         0         0         0         0         0 
dram[1]:         0         0         0         0         0         0         0         0         0         0         0         0         0         0         0         0 
dram[2]:         0         0         0         0         0         0         0         0         0         0         0         0         0         0         0         0 
dram[3]:         0         0         0         0         0         0         0         0         0         0         0         0         0         0         0         0 
dram[4]:         0         0         0         0         0         0         0         0         0         0         0         0         0         0         0         0 
total accesses: 0
min_bank_accesses = 0!
min_chip_accesses = 0!
number of total read accesses:
dram[0]:      1204      1246      1214      1151      1239      1228      1175      1223      1257      1190      1209      1295      1250      1221      1263      1206 
dram[1]:      1213      1267      1210      1160      1243      1234      1174      1226      1246      1189      1212      1283      1235      1222      1264      1216 
dram[2]:      1217      1260      1222      1162      1238      1227      1174      1223      1230      1184      1197      1278      1232      1225      1267      1223 
dram[3]:      1218      1261      1222      1147      1227      1211      1154      1206      1243      1180      1213      1279      1239      1237      1276      1225 
dram[4]:      1219      1245      1208      1134      1237      1209      1164      1222      1234      1182      1222      1281      1251      1238      1281      1202 
total reads: 97791
bank skew: 1295/1134 = 1.14
chip skew: 19594/19529 = 1.00
number of total write accesses:
dram[0]:      1690      1688      1651      1641      1801      1781      1718      1795      1827      1734      1744      1823      1791      1792      1724      1673 
dram[1]:      1692      1677      1634      1635      1792      1769      1723      1809      1828      1749      1752      1812      1793      1790      1733      1679 
dram[2]:      1686      1670      1648      1642      1801      1782      1731      1813      1823      1745      1729      1816      1795      1786      1725      1669 
dram[3]:      1689      1691      1655      1634      1798      1776      1726      1801      1825      1732      1755      1805      1784      1799      1737      1681 
dram[4]:      1688      1681      1652      1642      1806      1772      1729      1807      1796      1728      1751      1804      1792      1798      1741      1670 
total reads: 139346
bank skew: 1828/1634 = 1.12
chip skew: 27888/27857 = 1.00
average mf latency per bank:
dram[0]:        208       211       218       217       212       221       227       212       212       221       214       210       218       214       210       221
dram[1]:        209       212       219       215       217       224       222       214       216       220       215       210       218       213       213       216
dram[2]:        210       211       222       217       217       224       225       213       214       223       218       212       221       214       211       219
dram[3]:        206       207       217       217       212       220       224       210       213       218       211       211       219       210       206       218
dram[4]:        207       211       221       215       217       221       226       213       217       222       213       214       221       214       211       224
maximum mf latency per bank:
dram[0]:        498       532       523       588       507       500       561       527       546       482       470       487       500       512       525       513
dram[1]:        470       483       479       488       543       564       558       509       566       477       485       553       505       487       523       494
dram[2]:        520       452       551       492       501       623       579       576       566       508       532       479       482       522       511       516
dram[3]:        535       444       514       507       513       553       550       609       542       518       527       511       541       579       518       486
dram[4]:        594       542       493       605       550       524       589       496       542       487       523       529       560       491       522       564

Number of Memory Banks Accessed per Memory Operation per Warp (from 0):
0	0	0	0	0	0	0	0	0	0	0	0	0	0	0	0	0	0	0	0	0	0	0	0	0	0	0	0	0	0	0	0	0	0	0	0	0	0	0	0	0	0	0	0	0	0	0	0	0	0	0	0	0	0	0	0	0	0	0	0	0	0	0	0	0	0	0	0	0	0	0	0	0	0	0	0	0	0	0	0	
Average # of Memory Banks Accessed per Memory Operation per Warp=-nan

position of mrq chosen
0	0	0	0	0	0	0	0	0	0	0	0	0	0	0	0	

average position of mrq chosen = -nan
gpgpu_l2_write_miss = 0
gpgpu_l2_write_access = 0
gpgpu_l2_read_miss = 0
gpgpu_l2_read_access = 0
Cache L2_bank_000:
MSHR contents

DRAM[0]: 16 bks, busW=4 BL=8 CL=12, tRRD=2 tCCD=6, tRCD=12 tRAS=28 tRP=12 tRC=40
n_cmd=303706 n_nop=210826 n_act=11916 n_pre=11900 n_req=47444 n_rd=39142 n_write=29922 bw_util=0.4548
n_activity=257653 dram_eff=0.5361
bk0: 2408a 236762i bk1: 2492a 236507i bk2: 2428a 232795i bk3: 2302a 233455i bk4: 2478a 234596i bk5: 2456a 231163i bk6: 2350a 232609i bk7: 2446a 232580i bk8: 2514a 229018i bk9: 2380a 227400i bk10: 2418a 231260i bk11: 2590a 225084i bk12: 2500a 220596i bk13: 2442a 216560i bk14: 2526a 201066i bk15: 2412a 156876i 
dram_util_bins: 0 0 0 0 0 0 0 0 0 0
dram_eff_bins: 0 0 0 0 0 0 0 0 0 0
mrqq: max=16 avg=9.49122
Cache L2_bank_001:
MSHR contents

DRAM[1]: 16 bks, busW=4 BL=8 CL=12, tRRD=2 tCCD=6, tRCD=12 tRAS=28 tRP=12 tRC=40
n_cmd=303706 n_nop=211052 n_act=11789 n_pre=11773 n_req=47461 n_rd=39188 n_write=29904 bw_util=0.455
n_activity=256954 dram_eff=0.5378
bk0: 2426a 238301i bk1: 2534a 237481i bk2: 2420a 233750i bk3: 2320a 233056i bk4: 2486a 235013i bk5: 2468a 231784i bk6: 2348a 232219i bk7: 2452a 234048i bk8: 2492a 229770i bk9: 2378a 227312i bk10: 2424a 230263i bk11: 2566a 225833i bk12: 2470a 221856i bk13: 2444a 217348i bk14: 2528a 201711i bk15: 2432a 158237i 
dram_util_bins: 0 0 0 0 0 0 0 0 0 0
dram_eff_bins: 0 0 0 0 0 0 0 0 0 0
mrqq: max=16 avg=9.47339
Cache L2_bank_002:
MSHR contents

DRAM[2]: 16 bks, busW=4 BL=8 CL=12, tRRD=2 tCCD=6, tRCD=12 tRAS=28 tRP=12 tRC=40
n_cmd=303706 n_nop=210795 n_act=11947 n_pre=11931 n_req=47420 n_rd=39118 n_write=29915 bw_util=0.4546
n_activity=257100 dram_eff=0.537
bk0: 2434a 236675i bk1: 2520a 235993i bk2: 2444a 232621i bk3: 2324a 233106i bk4: 2476a 235227i bk5: 2454a 231396i bk6: 2348a 231765i bk7: 2446a 233285i bk8: 2460a 229377i bk9: 2368a 225676i bk10: 2394a 229638i bk11: 2556a 225976i bk12: 2464a 221345i bk13: 2450a 217349i bk14: 2534a 199905i bk15: 2446a 157522i 
dram_util_bins: 0 0 0 0 0 0 0 0 0 0
dram_eff_bins: 0 0 0 0 0 0 0 0 0 0
mrqq: max=16 avg=9.4854
Cache L2_bank_003:
MSHR contents

DRAM[3]: 16 bks, busW=4 BL=8 CL=12, tRRD=2 tCCD=6, tRCD=12 tRAS=28 tRP=12 tRC=40
n_cmd=303706 n_nop=210990 n_act=11849 n_pre=11833 n_req=47426 n_rd=39076 n_write=29958 bw_util=0.4546
n_activity=257391 dram_eff=0.5364
bk0: 2436a 238180i bk1: 2522a 236545i bk2: 2444a 232495i bk3: 2294a 233053i bk4: 2454a 234621i bk5: 2422a 231457i bk6: 2308a 233170i bk7: 2412a 234198i bk8: 2486a 229606i bk9: 2360a 225839i bk10: 2426a 229922i bk11: 2558a 226455i bk12: 2478a 222489i bk13: 2474a 217322i bk14: 2552a 201081i bk15: 2450a 157356i 
dram_util_bins: 0 0 0 0 0 0 0 0 0 0
dram_eff_bins: 0 0 0 0 0 0 0 0 0 0
mrqq: max=16 avg=9.48656
Cache L2_bank_004:
MSHR contents

DRAM[4]: 16 bks, busW=4 BL=8 CL=12, tRRD=2 tCCD=6, tRCD=12 tRAS=28 tRP=12 tRC=40
n_cmd=303706 n_nop=210709 n_act=12015 n_pre=11999 n_req=47386 n_rd=39058 n_write=29925 bw_util=0.4543
n_activity=257737 dram_eff=0.5353
bk0: 2438a 238553i bk1: 2490a 236341i bk2: 2416a 231993i bk3: 2268a 233788i bk4: 2474a 235599i bk5: 2418a 230505i bk6: 2328a 232586i bk7: 2444a 233011i bk8: 2468a 230409i bk9: 2364a 227003i bk10: 2444a 230887i bk11: 2562a 225587i bk12: 2502a 219146i bk13: 2476a 217960i bk14: 2562a 201456i bk15: 2404a 156666i 
dram_util_bins: 0 0 0 0 0 0 0 0 0 0
dram_eff_bins: 0 0 0 0 0 0 0 0 0 0
mrqq: max=16 avg=9.66452
Cache L2_bank_000:	Size = 131072 B (64 Set x 16-way x 128 byte line)
		Access = 41348, Miss = 19571 (0.473), PendingHit = 15337 (0.371)
Cache L2_bank_001:	Size = 131072 B (64 Set x 16-way x 128 byte line)
		Access = 41333, Miss = 19594 (0.474), PendingHit = 15324 (0.371)
Cache L2_bank_002:	Size = 131072 B (64 Set x 16-way x 128 byte line)
		Access = 41315, Miss = 19559 (0.473), PendingHit = 15316 (0.371)
Cache L2_bank_003:	Size = 131072 B (64 Set x 16-way x 128 byte line)
		Access = 41455, Miss = 19538 (0.471), PendingHit = 15345 (0.37)
Cache L2_bank_004:	Size = 131072 B (64 Set x 16-way x 128 byte line)
		Access = 41358, Miss = 19529 (0.472), PendingHit = 15327 (0.371)
L2 Cache Total Miss Rate = 0.473

icnt_total_pkts_mem_to_simt=415873
icnt_total_pkts_simt_to_mem=361249

LD_mem_lat_dist  0 0 0 0 0 0 0 0 0 0 0 0 0 0 0 0 0 0 0 0 0 0 0 0 0 0 0
ST_mem_lat_dist  0 0 0 0 0 0 0 0 0 0 0 0 0 0 0 0 0 0 0 0 0 0 0 0 0 0 0
Traffic 0 Stat
%=================================
% Average latency = 97.1883
% Accepted packets = 0 at node 0 (avg = 0.0868776)
lat(3) = 97.1883;
thru(3,:) = [ 0 0 0 0 0 0 0 0 0 0 0 0 0 0 0.399698 0.399579 0.399528 0.399591 0.399789 0 0 0 0 ];
% latency change    = 0.826967
% throughput change = 0.155609
Traffic 1 Stat
%=================================
% Average latency = 8.04378
% Accepted packets = 0 at node 14 (avg = 0.091667)
lat(4) = 8.04378;
thru(4,:) = [ 0.0983537 0.0997147 0.101615 0.194269 0.100197 0.155104 0.192284 0.196679 0.197586 0.197955 0.152382 0.125127 0.100225 0.196849 0 0 0 0 0 0 0 0 0 ];
% latency change    = 11.0824
% throughput change = 0.0522474
----------------------------Interconnect-DETAILS---------------------------------=======Traffic[0]class0 ======
Traffic[0]class0Overall average latency = 84.9865 (2 samples)
Traffic[0]class0Overall average accepted rate = 0.0509497 (2 samples)
Traffic[0]class0Overall min accepted rate = 0 (2 samples)
traffic_manager/latency_stat_0_freq = [ 0 1939 2794 611 657 378 479 322 399 311 348 367 359 384 457 491 1514 2107 1544 1705 1717 1829 1981 2029 2091 2155 2086 2110 2048 2213 2127 2231 2203 2211 2180 2162 2135 2100 2103 1993 1907 1925 1944 1905 1840 1822 1810 1642 1762 1626 1623 1574 1542 1496 1504 1504 1383 1450 1311 1315 1253 1246 1190 1255 1200 1183 1152 1007 1129 1103 998 1057 1068 937 923 986 953 946 914 930 882 875 810 838 790 809 703 743 741 722 738 681 680 695 658 741 593 641 664 628 559 630 571 607 576 531 561 591 522 503 547 543 506 535 515 485 510 475 487 474 458 482 467 480 495 480 482 464 440 460 436 465 435 441 445 449 428 447 442 410 425 408 404 426 427 420 379 405 396 431 416 418 391 402 347 395 375 378 345 379 345 413 372 434 339 411 373 399 384 366 346 376 325 383 328 395 349 340 321 335 325 363 357 317 333 345 321 305 299 344 324 352 346 383 332 345 291 329 317 306 295 313 300 308 295 342 274 282 289 300 307 306 298 317 274 309 302 302 294 329 306 332 278 328 252 278 289 287 261 308 276 292 230 282 239 255 298 265 269 291 259 254 232 264 226 259 191 255 235 240 202 232 207 240 223 226 196 244 212 234 205 190 216 224 210 236 207 216 191 213 190 198 149 222 190 181 167 183 145 165 151 179 134 185 143 155 140 150 140 154 152 157 123 125 152 143 117 139 104 119 119 120 113 102 115 96 121 117 87 127 84 105 101 82 99 96 87 98 70 99 65 77 72 66 70 80 72 77 76 65 57 46 55 68 53 59 56 57 48 42 42 55 37 52 26 35 31 39 26 39 32 33 19 26 15 30 27 39 24 19 16 27 16 22 26 20 29 18 17 16 24 22 15 28 22 25 9 22 13 15 14 18 21 24 13 18 11 12 13 20 24 19 13 10 6 16 10 12 8 6 6 18 4 17 15 18 10 6 9 13 6 15 7 10 7 7 10 10 6 12 9 6 8 6 4 3 5 7 6 7 6 9 9 6 7 6 7 9 6 4 7 5 3 8 5 6 4 10 5 7 0 6 4 6 1 4 6 7 1 3 1 7 2 2 0 5 6 6 7 4 3 4 2 3 0 2 0 1 3 3 4 1 0 4 3 3 2 2 1 3 3 2 3 1 1 5 7 1 1 2 0 2 1 0 0 2 1 2 5 1 2 1 0 0 2 3 1 3 1 1 1 1 2 1 2 0 2 2 1 0 0 0 2 0 1 0 0 1 1 0 0 0 1 0 1 2 0 0 2 0 0 0 0 1 1 0 0 2 1 0 0 0 0 2 1 1 1 2 1 0 0 0 1 2 2 0 1 1 1 2 1 1 0 0 1 2 1 2 0 0 0 1 1 0 0 1 0 0 0 1 0 0 1 0 1 1 0 0 0 0 0 0 0 0 0 0 1 2 1 1 0 0 0 0 0 0 0 1 0 0 0 0 0 0 1 0 0 0 0 0 0 0 0 0 0 0 0 1 0 0 0 0 0 0 0 0 0 0 1 0 0 0 0 0 0 0 0 0 0 0 0 0 0 0 0 0 0 0 0 0 0 0 0 0 0 0 0 0 0 0 0 0 0 0 0 0 0 0 0 0 0 0 0 0 0 0 0 0 0 0 0 0 0 0 0 0 0 0 0 0 0 0 0 0 0 0 0 0 0 0 0 0 0 0 0 0 0 0 0 0 0 0 0 0 0 0 0 0 0 0 0 0 0 0 0 0 0 0 0 0 0 0 0 0 0 0 0 0 0 0 0 0 0 0 0 0 0 0 0 0 0 0 0 0 0 0 0 0 0 0 0 0 0 0 0 0 0 0 0 0 0 0 0 0 0 0 0 0 0 0 0 0 0 0 0 0 0 0 0 0 0 0 0 0 0 0 0 0 0 0 0 0 0 0 0 0 0 0 0 0 0 0 0 0 0 0 0 0 0 0 0 0 0 0 0 0 0 0 0 0 0 0 0 0 0 0 0 0 0 0 0 0 0 0 0 0 0 0 0 0 0 0 0 0 0 0 0 0 0 0 0 0 0 0 0 0 0 0 0 0 0 0 0 0 0 0 0 0 0 0 0 0 0 0 0 0 0 0 0 0 0 0 0 0 0 0 0 0 0 0 0 0 0 0 0 0 0 0 0 0 0 0 0 0 0 0 0 0 0 0 0 0 0 0 0 0 0 0 0 0 0 0 0 0 0 0 0 0 0 0 0 0 0 0 0 0 0 0 0 0 0 0 0 0 0 0 0 0 0 0 0 0 0 0 0 0 0 0 0 0 ];
Traffic[0]class1Average hops = 1 (206809 samples)
traffic_manager/hop_stats_freq = [ 0 206809 0 0 0 0 0 0 0 0 0 0 0 0 0 0 0 0 0 0 ];
=======Traffic[1]class0 ======
Traffic[1]class0Overall average latency = 12.4303 (2 samples)
Traffic[1]class0Overall average accepted rate = 0.0825128 (2 samples)
Traffic[1]class0Overall min accepted rate = 0 (2 samples)
traffic_manager/latency_stat_0_freq = [ 0 59856 8862 5556 6521 21309 7955 5793 7875 12211 6262 4573 4411 4248 4289 3188 6936 3578 2966 2586 2195 2976 1809 1409 1254 1172 1336 865 721 592 561 677 423 359 306 306 342 206 151 146 155 175 98 99 78 60 76 42 55 52 38 29 26 21 27 17 12 7 7 14 1 5 7 5 5 4 2 3 0 1 0 3 0 0 0 0 1 0 0 0 0 0 0 0 0 0 0 0 0 0 0 0 0 0 0 0 0 0 0 0 0 0 0 0 0 0 0 0 0 0 0 0 0 0 0 0 0 0 0 0 0 0 0 0 0 0 0 0 0 0 0 0 0 0 0 0 0 0 0 0 0 0 0 0 0 0 0 0 0 0 0 0 0 0 0 0 0 0 0 0 0 0 0 0 0 0 0 0 0 0 0 0 0 0 0 0 0 0 0 0 0 0 0 0 0 0 0 0 0 0 0 0 0 0 0 0 0 0 0 0 0 0 0 0 0 0 0 0 0 0 0 0 0 0 0 0 0 0 0 0 0 0 0 0 0 0 0 0 0 0 0 0 0 0 0 0 0 0 0 0 0 0 0 0 0 0 0 0 0 0 0 0 0 0 0 0 0 0 0 0 0 0 0 0 0 0 0 0 0 0 0 0 0 0 0 0 0 0 0 0 0 0 0 0 0 0 0 0 0 0 0 0 0 0 0 0 0 0 0 0 0 0 0 0 0 0 0 0 0 0 0 0 0 0 0 0 0 0 0 0 0 0 0 0 0 0 0 0 0 0 0 0 0 0 0 0 0 0 0 0 0 0 0 0 0 0 0 0 0 0 0 0 0 0 0 0 0 0 0 0 0 0 0 0 0 0 0 0 0 0 0 0 0 0 0 0 0 0 0 0 0 0 0 0 0 0 0 0 0 0 0 0 0 0 0 0 0 0 0 0 0 0 0 0 0 0 0 0 0 0 0 0 0 0 0 0 0 0 0 0 0 0 0 0 0 0 0 0 0 0 0 0 0 0 0 0 0 0 0 0 0 0 0 0 0 0 0 0 0 0 0 0 0 0 0 0 0 0 0 0 0 0 0 0 0 0 0 0 0 0 0 0 0 0 0 0 0 0 0 0 0 0 0 0 0 0 0 0 0 0 0 0 0 0 0 0 0 0 0 0 0 0 0 0 0 0 0 0 0 0 0 0 0 0 0 0 0 0 0 0 0 0 0 0 0 0 0 0 0 0 0 0 0 0 0 0 0 0 0 0 0 0 0 0 0 0 0 0 0 0 0 0 0 0 0 0 0 0 0 0 0 0 0 0 0 0 0 0 0 0 0 0 0 0 0 0 0 0 0 0 0 0 0 0 0 0 0 0 0 0 0 0 0 0 0 0 0 0 0 0 0 0 0 0 0 0 0 0 0 0 0 0 0 0 0 0 0 0 0 0 0 0 0 0 0 0 0 0 0 0 0 0 0 0 0 0 0 0 0 0 0 0 0 0 0 0 0 0 0 0 0 0 0 0 0 0 0 0 0 0 0 0 0 0 0 0 0 0 0 0 0 0 0 0 0 0 0 0 0 0 0 0 0 0 0 0 0 0 0 0 0 0 0 0 0 0 0 0 0 0 0 0 0 0 0 0 0 0 0 0 0 0 0 0 0 0 0 0 0 0 0 0 0 0 0 0 0 0 0 0 0 0 0 0 0 0 0 0 0 0 0 0 0 0 0 0 0 0 0 0 0 0 0 0 0 0 0 0 0 0 0 0 0 0 0 0 0 0 0 0 0 0 0 0 0 0 0 0 0 0 0 0 0 0 0 0 0 0 0 0 0 0 0 0 0 0 0 0 0 0 0 0 0 0 0 0 0 0 0 0 0 0 0 0 0 0 0 0 0 0 0 0 0 0 0 0 0 0 0 0 0 0 0 0 0 0 0 0 0 0 0 0 0 0 0 0 0 0 0 0 0 0 0 0 0 0 0 0 0 0 0 0 0 0 0 0 0 0 0 0 0 0 0 0 0 0 0 0 0 0 0 0 0 0 0 0 0 0 0 0 0 0 0 0 0 0 0 0 0 0 0 0 0 0 0 0 0 0 0 0 0 0 0 0 0 0 0 0 0 0 0 0 0 0 0 0 0 0 0 0 0 0 0 0 0 0 0 0 0 0 0 0 0 0 0 0 0 0 0 0 0 0 0 0 0 0 0 0 0 0 0 0 0 0 0 0 0 0 0 0 0 0 0 0 0 0 0 0 0 0 0 0 0 0 0 0 0 0 0 0 0 0 0 0 0 0 0 0 0 0 ];
Traffic[1]class1Average hops = 1 (206809 samples)
traffic_manager/hop_stats_freq = [ 0 206809 0 0 0 0 0 0 0 0 0 0 0 0 0 0 0 0 0 0 ];
----------------------------END-of-Interconnect-DETAILS-------------------------

gpgpu_simulation_time = 0 days, 0 hrs, 1 min, 15 sec (75 sec)
gpgpu_simulation_rate = 285260 (inst/sec)
gpgpu_simulation_rate = 1349 (cycle/sec)

kernel '_Z17histo_main_kernelP6uchar4jjjjjPjS1_S1_' transfer to GPU hardware scheduler
kernel_name = _Z17histo_main_kernelP6uchar4jjjjjPjS1_S1_ 
kernel_launch_uid = 3 
gpu_sim_cycle = 445980
gpu_sim_insn = 157206464
gpu_ipc =     352.4967
gpu_tot_sim_cycle = 547217
gpu_tot_sim_insn = 178600998
gpu_tot_ipc =     326.3806
gpu_tot_issued_cta = 0
gpu_stall_dramfull = 706723
gpu_stall_icnt2sh    = 2507292
gpu_total_sim_rate=336983
Cache L1D_000:	Size = 16384 B (32 Set x 4-way x 128 byte line)
		Access = 133430, Miss = 35022 (0.262), PendingHit = 97140 (0.728)
Cache L1D_001:	Size = 16384 B (32 Set x 4-way x 128 byte line)
		Access = 132856, Miss = 34936 (0.263), PendingHit = 96906 (0.729)
Cache L1D_002:	Size = 16384 B (32 Set x 4-way x 128 byte line)
		Access = 133178, Miss = 35018 (0.263), PendingHit = 97007 (0.728)
Cache L1D_003:	Size = 16384 B (32 Set x 4-way x 128 byte line)
		Access = 135082, Miss = 36804 (0.272), PendingHit = 96758 (0.716)
Cache L1D_004:	Size = 16384 B (32 Set x 4-way x 128 byte line)
		Access = 132422, Miss = 34640 (0.262), PendingHit = 96718 (0.73)
Cache L1D_005:	Size = 16384 B (32 Set x 4-way x 128 byte line)
		Access = 134368, Miss = 35918 (0.267), PendingHit = 96870 (0.721)
Cache L1D_006:	Size = 16384 B (32 Set x 4-way x 128 byte line)
		Access = 135600, Miss = 36964 (0.273), PendingHit = 97149 (0.716)
Cache L1D_007:	Size = 16384 B (32 Set x 4-way x 128 byte line)
		Access = 134438, Miss = 36674 (0.273), PendingHit = 96478 (0.718)
Cache L1D_008:	Size = 16384 B (32 Set x 4-way x 128 byte line)
		Access = 134646, Miss = 36167 (0.269), PendingHit = 97048 (0.721)
Cache L1D_009:	Size = 16384 B (32 Set x 4-way x 128 byte line)
		Access = 134886, Miss = 36391 (0.27), PendingHit = 97145 (0.72)
Cache L1D_010:	Size = 16384 B (32 Set x 4-way x 128 byte line)
		Access = 134168, Miss = 35158 (0.262), PendingHit = 97334 (0.725)
Cache L1D_011:	Size = 16384 B (32 Set x 4-way x 128 byte line)
		Access = 133510, Miss = 34943 (0.262), PendingHit = 97016 (0.727)
Cache L1D_012:	Size = 16384 B (32 Set x 4-way x 128 byte line)
		Access = 132080, Miss = 34538 (0.261), PendingHit = 96441 (0.73)
Cache L1D_013:	Size = 16384 B (32 Set x 4-way x 128 byte line)
		Access = 135014, Miss = 36778 (0.272), PendingHit = 97017 (0.719)
total_dl1_misses=499951
total_dl1_accesses=1875678
total_dl1_miss_rate= 0.266544
Shader 0 dynamic_warp_id issue ditsribution:
dynamic_warp_id:
0, 1, 2, 3, 4, 5, 6, 7, 8, 9, 10, 11, 12, 13, 14, 15, 16, 17, 18, 19, 20, 21, 22, 23, 24, 25, 26, 27, 28, 29, 30, 31, 32, 33, 34, 35, 36, 37, 38, 39, 40, 41, 42, 43, 44, 45, 46, 47, 48, 49, 50, 51, 52, 53, 54, 55, 56, 57, 58, 59, 60, 61, 62, 63, 64, 65, 66, 67, 68, 69, 70, 71, 72, 73, 74, 75, 76, 77, 78, 79, 80, 81, 82, 83, 84, 85, 86, 87, 88, 89, 90, 91, 92, 93, 94, 95, 96, 97, 98, 99, 100, 101, 102, 103, 104, 105, 106, 107, 108, 109, 110, 111, 112, 113, 114, 115, 116, 117, 118, 119, 120, 121, 122, 123, 124, 125, 126, 127, 128, 129, 130, 131, 132, 133, 134, 135, 136, 137, 138, 139, 140, 141, 142, 143, 144, 145, 146, 147, 148, 149, 150, 151, 152, 153, 154, 155, 156, 157, 158, 159, 160, 161, 162, 163, 164, 165, 166, 167, 168, 169, 170, 171, 172, 173, 174, 175, 176, 177, 178, 179, 180, 181, 182, 183, 184, 185, 186, 187, 188, 189, 190, 191, 192, 193, 194, 195, 196, 197, 198, 199, 200, 201, 202, 203, 204, 205, 206, 207, 208, 209, 210, 211, 212, 213, 214, 215, 216, 217, 218, 219, 220, 221, 222, 223, 224, 225, 226, 227, 228, 229, 230, 231, 232, 233, 234, 235, 236, 237, 238, 239, 240, 241, 242, 243, 244, 245, 246, 247, 248, 249, 250, 251, 252, 253, 254, 255, 256, 257, 258, 259, 260, 261, 262, 263, 264, 265, 266, 267, 268, 269, 270, 271, 272, 273, 274, 275, 276, 277, 278, 279, 280, 281, 282, 283, 284, 285, 286, 287, 288, 289, 290, 291, 292, 293, 294, 295, 296, 297, 298, 299, 300, 301, 302, 303, 304, 305, 306, 307, 308, 309, 310, 311, 312, 313, 314, 315, 316, 317, 318, 319, 320, 321, 322, 323, 324, 325, 326, 327, 328, 329, 330, 331, 332, 333, 334, 335, 336, 337, 338, 339, 340, 341, 342, 343, 344, 345, 346, 347, 348, 349, 350, 351, 352, 353, 354, 355, 356, 357, 358, 359, 360, 361, 362, 363, 364, 365, 366, 367, 
distro:
269, 201, 188, 188, 175, 175, 175, 175, 162, 162, 162, 162, 162, 162, 162, 162, 269, 201, 188, 188, 175, 175, 175, 175, 162, 162, 162, 162, 162, 162, 162, 162, 269, 201, 188, 188, 175, 175, 175, 175, 162, 162, 162, 162, 162, 162, 162, 162, 269, 201, 188, 188, 175, 175, 175, 175, 162, 162, 162, 162, 162, 162, 162, 162, 269, 201, 188, 188, 175, 175, 175, 175, 162, 162, 162, 162, 162, 162, 162, 162, 269, 201, 188, 188, 175, 175, 175, 175, 162, 162, 162, 162, 162, 162, 162, 162, 507, 507, 507, 507, 507, 507, 507, 507, 507, 507, 507, 507, 507, 507, 507, 507, 507, 507, 507, 507, 507, 507, 507, 507, 507, 507, 507, 507, 507, 507, 507, 507, 507, 507, 507, 507, 507, 507, 507, 507, 507, 507, 507, 507, 507, 507, 507, 507, 2791, 2791, 2791, 2791, 2791, 2791, 2791, 2791, 2791, 2791, 2791, 2791, 2791, 2791, 2791, 2791, 1339, 1339, 1339, 1339, 1339, 1339, 1339, 1339, 1339, 1339, 1339, 1339, 1339, 1339, 1339, 1339, 1331, 1331, 1331, 1331, 1331, 1331, 1331, 1331, 1331, 1331, 1331, 1331, 1331, 1331, 1331, 1331, 1339, 1339, 1339, 1353, 1339, 1339, 1339, 1339, 1339, 1353, 1339, 1339, 1339, 1339, 1339, 1339, 1507, 1493, 1437, 1493, 1521, 1535, 1451, 1479, 1563, 1563, 1507, 1535, 1479, 1465, 1451, 1507, 3201, 3243, 3243, 3215, 3173, 3117, 3201, 3229, 3243, 3229, 3159, 3145, 3215, 3173, 3201, 3229, 3369, 3369, 3369, 3369, 3369, 3369, 3369, 3369, 3369, 3369, 3369, 3369, 3369, 3369, 3369, 3369, 3369, 3369, 3369, 3369, 3369, 3369, 3369, 3369, 3369, 3369, 3369, 3369, 3369, 3369, 3369, 3369, 3215, 3187, 3215, 3229, 3201, 3271, 3215, 3243, 3215, 3243, 3257, 3201, 3215, 3201, 3201, 3201, 1521, 1549, 1507, 1535, 1535, 1619, 1479, 1521, 1535, 1507, 1577, 1521, 1577, 1591, 1535, 1563, 1339, 1339, 1339, 1339, 1339, 1339, 1339, 1339, 1339, 1339, 1339, 1339, 1339, 1339, 1339, 1339, 1339, 1339, 1331, 1331, 1331, 1331, 1331, 1331, 1331, 1331, 1331, 1331, 1331, 1345, 1331, 1331, 1339, 1339, 1339, 1339, 1339, 1339, 1339, 1339, 1339, 1339, 1339, 1339, 1339, 1339, 1339, 1339, 1331, 1331, 1331, 1331, 1331, 1331, 1331, 1331, 1331, 1331, 1331, 1331, 1331, 1331, 1331, 1331, 
gpgpu_n_tot_thrd_icount = 225359360
gpgpu_n_tot_w_icount = 7042480
gpgpu_n_icache_hits = 4035118
gpgpu_n_icache_misses = 17554
gpgpu_n_l1dcache_read_hits = 18700
gpgpu_n_l1dcache_read_misses = 1856978
gpgpu_n_l1dcache_write_accesses = 154440
gpgpu_n_l1dcache_wirte_misses = 154440
gpgpu_n_tcache_hits = 0
gpgpu_n_tcache_misses = 0
gpgpu_n_ccache_hits = 592688
gpgpu_n_ccache_misses = 448
gpgpu_n_stall_shd_mem = 3847939
gpgpu_n_mem_read_local = 0
gpgpu_n_mem_write_local = 0
gpgpu_n_mem_read_global = 700783
gpgpu_n_mem_write_global = 154440
gpgpu_n_mem_texture = 0
gpgpu_n_mem_const = 14
gpgpu_n_load_insn  = 33768768
gpgpu_n_store_insn = 2071680
gpgpu_n_shmem_insn = 6867968
gpgpu_n_tex_insn = 0
gpgpu_n_const_mem_insn = 0
gpgpu_n_param_mem_insn = 37863916
gpgpu_n_shmem_bkconflict = 0
gpgpu_n_cache_bkconflict = 0
gpgpu_n_intrawarp_mshr_merge = 0
gpgpu_n_cmem_portconflict = 1235
gpgpu_stall_shd_mem[c_mem][bk_conf] = 1235
gpgpu_stall_shd_mem[c_mem][mshr_rc] = 0
gpgpu_stall_shd_mem[c_mem][icnt_rc] = 0
gpgpu_stall_shd_mem[t_mem][mshr_rc] = 0
gpgpu_stall_shd_mem[t_mem][icnt_rc] = 0
gpgpu_stall_shd_mem[s_mem][bk_conf] = 95112
gpgpu_stall_shd_mem[gl_mem][bk_conf] = 0
gpgpu_stall_shd_mem[gl_mem][coal_stall] = 3751592
gpgpu_stall_shd_mem[g_mem_ld][mshr_rc] = 0
gpgpu_stall_shd_mem[g_mem_ld][icnt_rc] = 0
gpgpu_stall_shd_mem[g_mem_ld][wb_icnt_rc] = 0
gpgpu_stall_shd_mem[g_mem_ld][wb_rsrv_fail] = 0
gpgpu_stall_shd_mem[g_mem_st][mshr_rc] = 0
gpgpu_stall_shd_mem[g_mem_st][icnt_rc] = 0
gpgpu_stall_shd_mem[g_mem_st][wb_icnt_rc] = 0
gpgpu_stall_shd_mem[g_mem_st][wb_rsrv_fail] = 0
gpgpu_stall_shd_mem[l_mem_ld][mshr_rc] = 0
gpgpu_stall_shd_mem[l_mem_ld][icnt_rc] = 0
gpgpu_stall_shd_mem[l_mem_ld][wb_icnt_rc] = 0
gpgpu_stall_shd_mem[l_mem_ld][wb_rsrv_fail] = 0
gpgpu_stall_shd_mem[l_mem_st][mshr_rc] = 0
gpgpu_stall_shd_mem[l_mem_st][icnt_rc] = 0
gpgpu_stall_shd_mem[l_mem_ld][wb_icnt_rc] = 0
gpgpu_stall_shd_mem[l_mem_ld][wb_rsrv_fail] = 0
gpu_reg_bank_conflict_stalls = 0
Warp Occupancy Distribution:
Stall:3990035	W0_Idle:399683	W0_Scoreboard:3186318	W1:234474	W2:210470	W3:181146	W4:138692	W5:82446	W6:50806	W7:38790	W8:43856	W9:57666	W10:76300	W11:92400	W12:104846	W13:108710	W14:108192	W15:93310	W16:76042	W17:54698	W18:68543	W19:20720	W20:10248	W21:4886	W22:1792	W23:658	W24:196	W25:56	W26:0	W27:0	W28:0	W29:0	W30:0	W31:0	W32:5182537
maxmrqlatency = 202 
maxdqlatency = 0 
maxmflatency = 623 
averagemflatency = 195 
max_icnt2mem_latency = 1740 
max_icnt2sh_latency = 101236 
mrq_lat_table:398477 	18851 	43792 	76811 	76290 	48133 	12292 	287 	0 	0 	0 	0 	0 	0 	0 	0 	0 	0 	0 	0 	0 	0 	0 	0 	0 	0 	0 	0 	0 	0 	0 	0 	
dq_lat_table:0 	0 	0 	0 	0 	0 	0 	0 	0 	0 	0 	0 	0 	0 	0 	0 	0 	0 	0 	0 	0 	0 	0 	0 	0 	0 	0 	0 	0 	0 	0 	0 	
mf_lat_table:0 	0 	0 	0 	0 	0 	157404 	517141 	180527 	165 	0 	0 	0 	0 	0 	0 	0 	0 	0 	0 	0 	0 	0 	0 	0 	0 	0 	0 	0 	0 	0 	0 	
icnt2mem_lat_table:334 	190549 	51918 	100919 	131986 	143076 	154136 	81431 	1964 	96 	18 	0 	0 	0 	0 	0 	0 	0 	0 	0 	0 	0 	0 	0 	
icnt2sh_lat_table:128 	76483 	133205 	469187 	21725 	69 	0 	0 	0 	0 	0 	0 	0 	3713 	30904 	57628 	62195 	0 	0 	0 	0 	0 	0 	0 	
mf_lat_pw_table:0 	0 	0 	0 	0 	0 	79 	840 	167 	0 	0 	0 	0 	0 	0 	0 	0 	0 	0 	0 	0 	0 	0 	0 	0 	0 	0 	0 	0 	0 	0 	0 	
maximum concurrent accesses to same row:
dram[0]:        32        55        32        32        32        32        32        37        43        46        61       103        65        32        32        32 
dram[1]:        32        48        32        32        32        32        32        38        62        47        68        76        73        32        32        32 
dram[2]:        39        40        32        32        32        32        32        48        44        39        63        66        78        32        32        32 
dram[3]:        32        40        32        32        32        32        32        41        32        46        40        73        87        32        32        32 
dram[4]:        40        33        34        32        32        38        32        33        33        45        52        79        86        32        32        43 
maximum service time to same row:
dram[0]:      9164      6343      7383      6270      9052      5536      6681     12255      9434     12618     12381     11113     11688     12408     10653      6264 
dram[1]:      6039      7648      8801     10636      9958      5550      7099     12308     11955     12541     10831     11670      5779     12391     10768      5330 
dram[2]:     11119      6435     12391     11348      8315      5567      6683     12353     12030     12204      8944     12134      9442      9960     10130      7815 
dram[3]:     10834      7202     12043     12457      9651      5849      6441     11587     12404     12571     12037     11993     11088     10308      5464      9956 
dram[4]:      9282     12368      5090     12358     10142      5643      6747     12180     12173     12776     12098      5435     12411     12626      5396      8112 
average row accesses per activate:
dram[0]:  2.301892  2.273969  2.259599  2.210196  2.217932  2.273419  2.232138  2.274711  2.282855  2.214193  2.208106  2.265711  2.237835  2.231469  2.318970  2.286644 
dram[1]:  2.278569  2.290756  2.231976  2.235537  2.252327  2.240496  2.249539  2.244824  2.280411  2.194373  2.218481  2.304070  2.207198  2.241055  2.249932  2.294600 
dram[2]:  2.279519  2.310218  2.243855  2.276596  2.255754  2.281653  2.300565  2.303377  2.315804  2.200155  2.279063  2.292670  2.256768  2.234973  2.288239  2.342494 
dram[3]:  2.309847  2.301351  2.303349  2.258361  2.276746  2.292793  2.246702  2.333783  2.322148  2.238711  2.308110  2.282173  2.254794  2.226391  2.330996  2.319405 
dram[4]:  2.321846  2.337927  2.297083  2.248475  2.300395  2.302103  2.253633  2.307958  2.326669  2.226078  2.280547  2.311182  2.255174  2.210567  2.324643  2.270171 
average row locality = 674933/297191 = 2.271041
number of total memory accesses made:
dram[0]:         0         0         0         0         0         0         0         0         0         0         0         0         0         0         0         0 
dram[1]:         0         0         0         0         0         0         0         0         0         0         0         0         0         0         0         0 
dram[2]:         0         0         0         0         0         0         0         0         0         0         0         0         0         0         0         0 
dram[3]:         0         0         0         0         0         0         0         0         0         0         0         0         0         0         0         0 
dram[4]:         0         0         0         0         0         0         0         0         0         0         0         0         0         0         0         0 
total accesses: 0
min_bank_accesses = 0!
min_chip_accesses = 0!
number of total read accesses:
dram[0]:      6363      6380      6366      6348      6821      6788      6734      6793      6797      6712      6723      6813      6766      6742      6484      6332 
dram[1]:      6367      6407      6367      6358      6815      6796      6737      6799      6788      6713      6715      6793      6750      6745      6485      6354 
dram[2]:      6365      6398      6371      6367      6814      6789      6738      6787      6766      6703      6708      6791      6749      6754      6487      6353 
dram[3]:      6373      6399      6364      6348      6800      6774      6715      6777      6785      6704      6723      6792      6755      6760      6496      6351 
dram[4]:      6368      6371      6356      6351      6816      6777      6728      6798      6770      6700      6728      6793      6770      6771      6479      6329 
total reads: 529712
bank skew: 6821/6329 = 1.08
chip skew: 105989/105905 = 1.00
number of total write accesses:
dram[0]:      1788      1779      1755      1759      1911      1876      1795      1860      1871      1775      1776      1876      1834      1838      1804      1749 
dram[1]:      1788      1771      1744      1757      1897      1868      1800      1875      1873      1788      1784      1868      1836      1836      1806      1762 
dram[2]:      1782      1764      1754      1765      1909      1879      1804      1876      1865      1783      1761      1873      1838      1835      1801      1745 
dram[3]:      1790      1780      1753      1755      1904      1879      1800      1865      1865      1774      1787      1862      1829      1845      1814      1753 
dram[4]:      1784      1772      1755      1757      1914      1872      1802      1873      1841      1768      1783      1867      1838      1848      1813      1746 
total reads: 145221
bank skew: 1914/1744 = 1.10
chip skew: 29055/29033 = 1.00
average mf latency per bank:
dram[0]:        235       238       242       267       262       263       270       263       250       245       232       230       234       233       232       239
dram[1]:        236       237       239       265       267       265       267       265       254       246       235       229       234       232       233       237
dram[2]:        241       241       245       271       268       267       271       265       259       251       240       234       239       236       236       241
dram[3]:        234       235       239       272       260       261       269       260       255       244       231       234       234       232       231       240
dram[4]:        232       236       240       267       260       259       266       259       255       245       233       231       234       231       232       239
[...]
gpu_reg_bank_conflict_stalls = 0
Warp Occupancy Distribution:
Stall:8985739	W0_Idle:1081289	W0_Scoreboard:6425870	W1:468948	W2:420940	W3:362292	W4:277384	W5:164892	W6:101612	W7:77580	W8:87712	W9:115332	W10:152600	W11:184800	W12:209692	W13:217420	W14:216384	W15:186620	W16:152084	W17:109396	W18:137086	W19:41440	W20:20496	W21:9772	W22:3584	W23:1316	W24:392	W25:112	W26:0	W27:0	W28:0	W29:0	W30:0	W31:0	W32:10795346
maxmrqlatency = 347 
maxdqlatency = 0 
maxmflatency = 799 
averagemflatency = 195 
max_icnt2mem_latency = 1740 
max_icnt2sh_latency = 1162950 
mrq_lat_table:851691 	43289 	100038 	179577 	184769 	120048 	31778 	1342 	14 	0 	0 	0 	0 	0 	0 	0 	0 	0 	0 	0 	0 	0 	0 	0 	0 	0 	0 	0 	0 	0 	0 	0 	
dq_lat_table:0 	0 	0 	0 	0 	0 	0 	0 	0 	0 	0 	0 	0 	0 	0 	0 	0 	0 	0 	0 	0 	0 	0 	0 	0 	0 	0 	0 	0 	0 	0 	0 	
mf_lat_table:0 	0 	0 	0 	0 	0 	335336 	1143653 	393959 	448 	0 	0 	0 	0 	0 	0 	0 	0 	0 	0 	0 	0 	0 	0 	0 	0 	0 	0 	0 	0 	0 	0 	
icnt2mem_lat_table:668 	401392 	100964 	200283 	278211 	344031 	360935 	184475 	4753 	207 	35 	0 	0 	0 	0 	0 	0 	0 	0 	0 	0 	0 	0 	0 	
icnt2sh_lat_table:252 	170859 	289181 	931538 	41474 	140 	0 	0 	0 	0 	0 	0 	0 	3713 	30904 	57628 	62195 	0 	0 	219976 	65536 	0 	0 	0 	
mf_lat_pw_table:0 	0 	0 	0 	0 	0 	169 	1804 	339 	0 	0 	0 	0 	0 	0 	0 	0 	0 	0 	0 	0 	0 	0 	0 	0 	0 	0 	0 	0 	0 	0 	0 	
maximum concurrent accesses to same row:
dram[0]:        80        55        36        80        65        45        39        75        75        55        61       103        75        55        64        50 
dram[1]:        50        48        32        80        55        80        35        80        70        55        68        80        73        50        54        62 
dram[2]:        70        40        50        80        55        70        45        80        70        60        63        80        78        50        60        60 
dram[3]:        55        40        45        80        65        75        55        80        70        60        49        75        87        50        59        58 
dram[4]:        60        35        34        80        75        70        50        75        75        50        52        80        86        50        53        45 
maximum service time to same row:
dram[0]:      9164      8274      7383      7341      9052      6050      6681     12255      9882     12618     12381     11113     11688     12408     10653      6264 
dram[1]:      6039      7648      8801     10636      9958      5550      7099     12308     11955     12541     10831     11670      6151     12391     10768      6160 
dram[2]:     11119      7587     12391     11348      8315      5896      6683     12353     12030     12204      8944     12134      9442      9960     10130      7815 
dram[3]:     10834      7202     12043     12457      9757      6426      6441     11587     12404     12571     12037     11993     11088     10308      5852      9956 
dram[4]:      9282     12368      9610     12358     10142      6040      6747     12180     12173     12776     12098      7307     12411     12626      5654      8112 
average row accesses per activate:
dram[0]:  2.445365  2.453721  2.427223  2.401508  2.373178  2.389497  2.394609  2.439183  2.448708  2.364235  2.355648  2.385648  2.363782  2.318902  2.448475  2.466630 
dram[1]:  2.442402  2.462383  2.426449  2.417114  2.408692  2.354997  2.399528  2.408400  2.447589  2.373956  2.368016  2.403595  2.347901  2.361338  2.412153  2.466892 
dram[2]:  2.472882  2.495656  2.441259  2.439694  2.410950  2.432925  2.430137  2.475718  2.487291  2.377422  2.422188  2.432278  2.392437  2.371816  2.467056  2.534507 
dram[3]:  2.493272  2.492563  2.466460  2.425174  2.455221  2.417749  2.404473  2.507086  2.483276  2.412048  2.419156  2.416814  2.401557  2.363028  2.476817  2.473606 
dram[4]:  2.497884  2.511602  2.461828  2.434903  2.449335  2.424097  2.436696  2.497181  2.495774  2.403057  2.424500  2.433566  2.385928  2.356852  2.469041  2.486100 
average row locality = 1512546/622948 = 2.428045
number of total memory accesses made:
dram[0]:         0         0         0         0         0         0         0         0         0         0         0         0         0         0         0         0 
dram[1]:         0         0         0         0         0         0         0         0         0         0         0         0         0         0         0         0 
dram[2]:         0         0         0         0         0         0         0         0         0         0         0         0         0         0         0         0 
dram[3]:         0         0         0         0         0         0         0         0         0         0         0         0         0         0         0         0 
dram[4]:         0         0         0         0         0         0         0         0         0         0         0         0         0         0         0         0 
total accesses: 0
min_bank_accesses = 0!
min_chip_accesses = 0!
number of total read accesses:
dram[0]:     13418     13471     13434     13539     14423     14274     14231     14299     14320     14120     14036     14240     14228     14144     13703     13411 
dram[1]:     13432     13512     13457     13558     14421     14287     14245     14302     14316     14120     14016     14203     14202     14149     13704     13447 
dram[2]:     13432     13504     13453     13577     14412     14285     14231     14287     14277     14099     14014     14204     14196     14173     13703     13453 
dram[3]:     13444     13512     13437     13547     14385     14259     14194     14274     14303     14100     14030     14212     14215     14182     13727     13446 
dram[4]:     13419     13468     13429     13577     14416     14264     14223     14302     14296     14104     14045     14227     14242     14193     13685     13412 
total reads: 1116531
bank skew: 14423/13411 = 1.08
chip skew: 223371/223267 = 1.00
number of total write accesses:
dram[0]:      4888      4927      4826      4931      5113      4928      5048      5173      5206      4905      4755      4943      4921      4871      4925      4810 
dram[1]:      4908      4882      4836      4916      5087      4918      5064      5194      5228      4931      4760      4920      4924      4907      4913      4845 
dram[2]:      4897      4879      4854      4911      5095      4957      5057      5187      5196      4918      4741      4921      4910      4913      4906      4836 
dram[3]:      4899      4923      4837      4911      5107      4921      5049      5186      5223      4919      4762      4876      4911      4890      4916      4829 
dram[4]:      4878      4932      4855      4938      5115      4930      5100      5186      5191      4921      4757      4913      4917      4914      4897      4831 
total reads: 396015
bank skew: 5228/4741 = 1.10
chip skew: 79275/79159 = 1.00
average mf latency per bank:
dram[0]:        232       234       238       261       256       258       262       257       247       240       231       231       233       232       230       234
dram[1]:        232       231       235       256       257       258       259       257       248       238       231       230       233       230       229       233
dram[2]:        235       233       237       260       257       258       259       256       250       240       232       231       235       233       231       235
dram[3]:        232       231       235       266       255       257       261       255       249       238       229       233       234       231       229       236
dram[4]:        229       229       233       259       253       254       257       253       246       237       229       228       232       230       229       233
maximum mf latency per bank:
dram[0]:        522       537       637       588       539       500       561       552       546       511       512       550       542       604       525       536
dram[1]:        517       688       545       533       561       564       586       627       583       528       545       600       576       581       523       581
dram[2]:        530       571       551       514       501       799       579       576       609       557       546       524       521       559       541       528
dram[3]:        535       523       587       575       513       563       561       609       620       540       527       511       552       579       518       512
dram[4]:        594       542       537       621       577       524       597       589       542       539       532       529       580       538       569       564

Number of Memory Banks Accessed per Memory Operation per Warp (from 0):
0	0	0	0	0	0	0	0	0	0	0	0	0	0	0	0	0	0	0	0	0	0	0	0	0	0	0	0	0	0	0	0	0	0	0	0	0	0	0	0	0	0	0	0	0	0	0	0	0	0	0	0	0	0	0	0	0	0	0	0	0	0	0	0	0	0	0	0	0	0	0	0	0	0	0	0	0	0	0	0	
Average # of Memory Banks Accessed per Memory Operation per Warp=-nan

position of mrq chosen
0	0	0	0	0	0	0	0	0	0	0	0	0	0	0	0	

average position of mrq chosen = -nan
gpgpu_l2_write_miss = 0
gpgpu_l2_write_access = 0
gpgpu_l2_read_miss = 0
gpgpu_l2_read_access = 0
Cache L2_bank_000:
MSHR contents

DRAM[0]: 16 bks, busW=4 BL=8 CL=12, tRRD=2 tCCD=6, tRCD=12 tRAS=28 tRP=12 tRC=40
n_cmd=3488835 n_nop=2698836 n_act=125836 n_pre=125820 n_req=302461 n_rd=446582 n_write=91761 bw_util=0.3086
n_activity=2506993 dram_eff=0.4295
bk0: 26836a 3125041i bk1: 26942a 3126681i bk2: 26868a 3129580i bk3: 27078a 3134854i bk4: 28846a 3146235i bk5: 28548a 3137215i bk6: 28462a 3137632i bk7: 28598a 3131264i bk8: 28640a 3122263i bk9: 28240a 3111179i bk10: 28072a 3111797i bk11: 28480a 3084016i bk12: 28456a 3057021i bk13: 28288a 2992756i bk14: 27406a 2796874i bk15: 26822a 1981996i 
dram_util_bins: 0 0 0 0 0 0 0 0 0 0
dram_eff_bins: 0 0 0 0 0 0 0 0 0 0
mrqq: max=16 avg=2.54268
Cache L2_bank_001:
MSHR contents

DRAM[1]: 16 bks, busW=4 BL=8 CL=12, tRRD=2 tCCD=6, tRCD=12 tRAS=28 tRP=12 tRC=40
n_cmd=3488835 n_nop=2698678 n_act=125802 n_pre=125786 n_req=302604 n_rd=446742 n_write=91827 bw_util=0.3087
n_activity=2517529 dram_eff=0.4279
bk0: 26864a 3125079i bk1: 27024a 3130537i bk2: 26914a 3130772i bk3: 27116a 3134369i bk4: 28842a 3146933i bk5: 28574a 3135722i bk6: 28490a 3136817i bk7: 28604a 3130141i bk8: 28632a 3123035i bk9: 28240a 3109810i bk10: 28032a 3110405i bk11: 28406a 3086461i bk12: 28404a 3059110i bk13: 28298a 2997199i bk14: 27408a 2798289i bk15: 26894a 1983044i 
dram_util_bins: 0 0 0 0 0 0 0 0 0 0
dram_eff_bins: 0 0 0 0 0 0 0 0 0 0
mrqq: max=16 avg=2.51948
Cache L2_bank_002:
MSHR contents

DRAM[2]: 16 bks, busW=4 BL=8 CL=12, tRRD=2 tCCD=6, tRCD=12 tRAS=28 tRP=12 tRC=40
n_cmd=3488835 n_nop=2702759 n_act=123885 n_pre=123869 n_req=302478 n_rd=446600 n_write=91722 bw_util=0.3086
n_activity=2499402 dram_eff=0.4308
bk0: 26864a 3127167i bk1: 27008a 3128817i bk2: 26906a 3130018i bk3: 27154a 3132407i bk4: 28824a 3146453i bk5: 28570a 3140615i bk6: 28462a 3140839i bk7: 28574a 3130777i bk8: 28554a 3126037i bk9: 28198a 3111568i bk10: 28028a 3109478i bk11: 28408a 3083448i bk12: 28392a 3057276i bk13: 28346a 2994473i bk14: 27406a 2801507i bk15: 26906a 2004950i 
dram_util_bins: 0 0 0 0 0 0 0 0 0 0
dram_eff_bins: 0 0 0 0 0 0 0 0 0 0
mrqq: max=16 avg=2.52318
Cache L2_bank_003:
MSHR contents

DRAM[3]: 16 bks, busW=4 BL=8 CL=12, tRRD=2 tCCD=6, tRCD=12 tRAS=28 tRP=12 tRC=40
n_cmd=3488835 n_nop=2702989 n_act=123775 n_pre=123759 n_req=302426 n_rd=446534 n_write=91778 bw_util=0.3086
n_activity=2493119 dram_eff=0.4318
bk0: 26888a 3129915i bk1: 27024a 3129093i bk2: 26874a 3131693i bk3: 27094a 3134815i bk4: 28770a 3144448i bk5: 28518a 3138286i bk6: 28388a 3138909i bk7: 28548a 3132577i bk8: 28606a 3125432i bk9: 28200a 3112921i bk10: 28060a 3110240i bk11: 28424a 3087327i bk12: 28430a 3058653i bk13: 28364a 2997343i bk14: 27454a 2803255i bk15: 26892a 2001772i 
dram_util_bins: 0 0 0 0 0 0 0 0 0 0
dram_eff_bins: 0 0 0 0 0 0 0 0 0 0
mrqq: max=16 avg=2.55732
Cache L2_bank_004:
MSHR contents

DRAM[4]: 16 bks, busW=4 BL=8 CL=12, tRRD=2 tCCD=6, tRCD=12 tRAS=28 tRP=12 tRC=40
n_cmd=3488835 n_nop=2703115 n_act=123654 n_pre=123638 n_req=302577 n_rd=446604 n_write=91824 bw_util=0.3087
n_activity=2506710 dram_eff=0.4296
bk0: 26838a 3129182i bk1: 26936a 3133570i bk2: 26858a 3131138i bk3: 27154a 3137233i bk4: 28832a 3148480i bk5: 28528a 3140081i bk6: 28446a 3143055i bk7: 28604a 3133195i bk8: 28592a 3128728i bk9: 28208a 3115620i bk10: 28090a 3112468i bk11: 28454a 3087462i bk12: 28484a 3056967i bk13: 28386a 2998391i bk14: 27370a 2801590i bk15: 26824a 2000906i 
dram_util_bins: 0 0 0 0 0 0 0 0 0 0
dram_eff_bins: 0 0 0 0 0 0 0 0 0 0
mrqq: max=16 avg=2.54096
Cache L2_bank_000:	Size = 131072 B (64 Set x 16-way x 128 byte line)
		Access = 375107, Miss = 223291 (0.595), PendingHit = 43670 (0.116)
Cache L2_bank_001:	Size = 131072 B (64 Set x 16-way x 128 byte line)
		Access = 375143, Miss = 223371 (0.595), PendingHit = 43690 (0.116)
Cache L2_bank_002:	Size = 131072 B (64 Set x 16-way x 128 byte line)
		Access = 374984, Miss = 223300 (0.595), PendingHit = 43696 (0.117)
Cache L2_bank_003:	Size = 131072 B (64 Set x 16-way x 128 byte line)
		Access = 375461, Miss = 223267 (0.595), PendingHit = 43617 (0.116)
Cache L2_bank_004:	Size = 131072 B (64 Set x 16-way x 128 byte line)
		Access = 375259, Miss = 223302 (0.595), PendingHit = 43796 (0.117)
L2 Cache Total Miss Rate = 0.595

icnt_total_pkts_mem_to_simt=7619166
icnt_total_pkts_simt_to_mem=2395778

LD_mem_lat_dist  0 0 0 0 0 0 0 0 0 0 0 0 0 0 0 0 0 0 0 0 0 0 0 0 0 0 0
ST_mem_lat_dist  0 0 0 0 0 0 0 0 0 0 0 0 0 0 0 0 0 0 0 0 0 0 0 0 0 0 0
Traffic 0 Stat
%=================================
% Average latency = 75.4037
% Accepted packets = 0 at node 0 (avg = 0.116648)
lat(15) = 75.4037;
thru(15,:) = [ 0 0 0 0 0 0 0 0 0 0 0 0 0 0 0.536421 0.536506 0.536449 0.536676 0.536846 0 0 0 0 ];
% latency change    = 0.791356
% throughput change = 0.351802
Traffic 1 Stat
%=================================
% Average latency = 8.17647
% Accepted packets = 0 at node 14 (avg = 0.0967829)
lat(16) = 8.17647;
thru(16,:) = [ 0.207882 0.156638 0.207882 0.109475 0.160719 0.208024 0.156638 0.156638 0.160719 0.156638 0.109475 0.160719 0.113556 0.161003 0 0 0 0 0 0 0 0 0 ];
% latency change    = 8.22204
% throughput change = 0.205251
----------------------------Interconnect-DETAILS---------------------------------=======Traffic[0]class0 ======
Traffic[0]class0Overall average latency = 72.0764 (8 samples)
Traffic[0]class0Overall average accepted rate = 0.0721732 (8 samples)
Traffic[0]class0Overall min accepted rate = 0 (8 samples)
traffic_manager/latency_stat_0_freq = [ 0 727 940 387 365 354 421 193 261 234 257 194 216 190 273 355 1222 1262 822 825 769 795 865 827 890 871 865 864 875 891 857 910 954 871 916 920 938 969 933 939 953 893 981 931 924 845 877 918 857 908 847 862 804 823 820 777 842 817 784 823 765 801 713 758 732 715 692 721 670 682 629 609 609 616 602 605 534 554 576 515 524 517 485 539 434 439 443 427 423 415 373 374 383 329 354 356 335 324 298 295 302 289 250 218 233 261 235 243 232 227 204 199 209 195 174 190 177 169 165 134 162 150 145 157 142 138 154 147 137 139 141 126 113 152 117 135 121 128 110 103 114 96 107 106 115 121 100 105 123 100 117 105 93 109 80 101 117 111 106 73 86 92 85 80 86 87 100 92 109 79 75 89 77 83 103 85 74 98 111 74 83 87 91 89 96 83 90 77 84 108 86 91 79 82 67 77 81 77 74 81 91 75 93 85 91 72 66 72 65 58 58 87 69 61 85 69 61 66 65 67 58 67 50 64 57 39 54 47 58 63 58 58 59 64 37 60 63 42 55 41 44 50 40 58 48 41 40 45 60 27 41 52 51 36 29 42 47 27 39 33 33 42 38 29 33 44 34 33 31 35 29 33 38 37 36 29 28 34 29 22 24 28 26 25 20 28 17 24 21 24 18 27 18 23 16 18 11 18 11 16 9 9 17 13 9 14 15 9 10 16 13 13 12 7 11 11 9 15 13 8 15 12 6 24 10 11 18 8 16 9 15 17 11 15 14 9 14 14 17 10 10 10 9 5 14 7 11 7 13 14 9 20 11 7 5 9 11 3 6 11 7 8 3 8 7 4 11 13 7 5 1 7 12 13 7 5 5 11 7 4 7 6 5 8 2 6 5 3 3 2 2 2 3 7 6 4 3 6 2 3 4 2 1 5 3 2 3 1 8 3 2 3 3 3 4 6 4 3 3 0 2 2 3 2 1 2 2 1 1 2 0 2 0 2 2 1 0 1 1 1 0 1 2 1 0 1 0 0 0 0 0 0 0 1 1 1 0 2 1 1 0 1 1 0 1 3 0 0 1 2 1 4 0 0 0 0 4 0 1 3 3 1 1 3 1 1 1 1 0 1 1 0 1 1 1 0 2 1 0 0 0 1 2 1 4 2 0 2 3 0 0 1 1 1 0 1 1 1 1 1 0 0 0 1 5 3 1 0 2 1 0 0 1 0 0 0 0 2 1 1 0 1 0 1 2 0 0 0 0 0 0 0 0 0 0 0 0 0 2 0 0 0 0 0 0 0 0 0 0 0 0 0 0 0 0 0 0 0 0 0 0 0 1 0 0 0 0 0 1 0 0 1 1 0 0 0 1 0 1 0 0 0 0 0 0 0 0 0 0 0 2 0 0 0 0 0 0 0 0 0 0 0 1 1 0 0 0 1 0 0 0 1 0 0 0 0 0 0 0 0 0 0 0 0 0 0 0 0 0 0 0 0 0 0 0 0 0 0 0 0 0 0 0 0 0 0 0 0 0 0 0 0 0 0 0 0 0 0 0 0 0 0 0 0 0 0 0 0 0 0 0 0 0 0 0 0 0 0 0 0 0 0 0 0 0 0 1 0 0 0 0 0 0 0 0 0 0 0 0 1 0 0 0 0 0 0 0 0 0 0 0 0 0 0 0 0 0 0 0 0 0 0 0 0 0 0 0 0 0 0 0 0 0 0 0 0 0 0 0 0 0 0 0 0 0 0 0 0 0 0 0 0 0 0 0 0 0 0 0 0 0 0 0 0 0 0 0 0 0 0 0 0 0 0 0 0 0 0 0 0 0 0 0 0 0 0 0 0 0 0 0 0 0 0 0 0 0 0 0 0 0 0 0 0 0 0 0 0 0 0 0 0 0 0 0 0 0 0 0 0 0 0 0 0 0 0 0 0 0 0 0 0 0 0 0 0 0 0 0 0 0 0 0 0 0 0 0 0 0 0 0 0 0 0 0 0 0 0 0 0 0 0 0 0 0 0 0 0 0 0 0 0 0 0 0 0 0 0 0 0 0 0 0 0 0 0 0 0 0 0 0 0 0 0 0 0 0 0 0 0 0 0 0 0 0 0 0 0 0 0 0 0 0 0 0 0 0 0 0 0 0 0 0 0 0 0 0 0 0 0 0 0 0 0 0 0 0 0 0 0 0 0 0 0 0 0 0 0 0 0 0 0 0 0 0 0 0 0 0 0 0 0 0 0 0 0 0 0 0 0 0 0 0 0 0 0 0 0 0 0 ];
Traffic[0]class1Average hops = 1 (1875954 samples)
traffic_manager/hop_stats_freq = [ 0 1875954 0 0 0 0 0 0 0 0 0 0 0 0 0 0 0 0 0 0 ];
=======Traffic[1]class0 ======
Traffic[1]class0Overall average latency = 12.1623 (8 samples)
Traffic[1]class0Overall average accepted rate = 0.104269 (8 samples)
Traffic[1]class0Overall min accepted rate = 0 (8 samples)
traffic_manager/latency_stat_0_freq = [ 0 21719 3211 2228 2815 9289 3738 3040 3608 5899 3482 2624 2236 1853 2017 1702 3575 1751 1284 1151 1110 1108 767 495 448 452 440 278 208 171 133 214 121 75 70 71 75 63 36 45 30 31 20 9 27 9 16 12 17 16 6 3 1 5 6 5 1 1 2 1 1 1 1 2 2 0 0 3 0 1 1 2 1 2 0 0 2 0 2 0 2 0 0 1 0 0 0 0 0 0 0 0 0 0 0 0 0 0 0 0 0 0 0 0 0 0 0 0 0 0 0 0 0 0 0 0 0 0 0 0 0 0 0 0 0 0 0 0 0 0 0 0 0 0 0 0 0 0 0 0 0 0 0 0 0 0 0 0 0 0 0 0 0 0 0 0 0 0 0 0 0 0 0 0 0 0 0 0 0 0 0 0 0 0 0 0 0 0 0 0 0 0 0 0 0 0 0 0 0 0 0 0 0 0 0 0 0 0 0 0 0 0 0 0 0 0 0 0 0 0 0 0 0 0 0 0 0 0 0 0 0 0 0 0 0 0 0 0 0 0 0 0 0 0 0 0 0 0 0 0 0 0 0 0 0 0 0 0 0 0 0 0 0 0 0 0 0 0 0 0 0 0 0 0 0 0 0 0 0 0 0 0 0 0 0 0 0 0 0 0 0 0 0 0 0 0 0 0 0 0 0 0 0 0 0 0 0 0 0 0 0 0 0 0 0 0 0 0 0 0 0 0 0 0 0 0 0 0 0 0 0 0 0 0 0 0 0 0 0 0 0 0 0 0 0 0 0 0 0 0 0 0 0 0 0 0 0 0 0 0 0 0 0 0 0 0 0 0 0 0 0 0 0 0 0 0 0 0 0 0 0 0 0 0 0 0 0 0 0 0 0 0 0 0 0 0 0 0 0 0 0 0 0 0 0 0 0 0 0 0 0 0 0 0 0 0 0 0 0 0 0 0 0 0 0 0 0 0 0 0 0 0 0 0 0 0 0 0 0 0 0 0 0 0 0 0 0 0 0 0 0 0 0 0 0 0 0 0 0 0 0 0 0 0 0 0 0 0 0 0 0 0 0 0 0 0 0 0 0 0 0 0 0 0 0 0 0 0 0 0 0 0 0 0 0 0 0 0 0 0 0 0 0 0 0 0 0 0 0 0 0 0 0 0 0 0 0 0 0 0 0 0 0 0 0 0 0 0 0 0 0 0 0 0 0 0 0 0 0 0 0 0 0 0 0 0 0 0 0 0 0 0 0 0 0 0 0 0 0 0 0 0 0 0 0 0 0 0 0 0 0 0 0 0 0 0 0 0 0 0 0 0 0 0 0 0 0 0 0 0 0 0 0 0 0 0 0 0 0 0 0 0 0 0 0 0 0 0 0 0 0 0 0 0 0 0 0 0 0 0 0 0 0 0 0 0 0 0 0 0 0 0 0 0 0 0 0 0 0 0 0 0 0 0 0 0 0 0 0 0 0 0 0 0 0 0 0 0 0 0 0 0 0 0 0 0 0 0 0 0 0 0 0 0 0 0 0 0 0 0 0 0 0 0 0 0 0 0 0 0 0 0 0 0 0 0 0 0 0 0 0 0 0 0 0 0 0 0 0 0 0 0 0 0 0 0 0 0 0 0 0 0 0 0 0 0 0 0 0 0 0 0 0 0 0 0 0 0 0 0 0 0 0 0 0 0 0 0 0 0 0 0 0 0 0 0 0 0 0 0 0 0 0 0 0 0 0 0 0 0 0 0 0 0 0 0 0 0 0 0 0 0 0 0 0 0 0 0 0 0 0 0 0 0 0 0 0 0 0 0 0 0 0 0 0 0 0 0 0 0 0 0 0 0 0 0 0 0 0 0 0 0 0 0 0 0 0 0 0 0 0 0 0 0 0 0 0 0 0 0 0 0 0 0 0 0 0 0 0 0 0 0 0 0 0 0 0 0 0 0 0 0 0 0 0 0 0 0 0 0 0 0 0 0 0 0 0 0 0 0 0 0 0 0 0 0 0 0 0 0 0 0 0 0 0 0 0 0 0 0 0 0 0 0 0 0 0 0 0 0 0 0 0 0 0 0 0 0 0 0 0 0 0 0 0 0 0 0 0 0 0 0 0 0 0 0 0 0 0 0 0 0 0 0 0 0 0 0 0 0 0 0 0 0 0 0 0 0 0 0 0 0 0 0 0 0 0 0 0 0 0 0 0 0 0 0 0 0 0 0 0 0 0 0 0 0 0 0 0 0 0 0 0 0 0 0 0 0 0 0 0 0 0 0 0 0 0 0 0 0 ];
Traffic[1]class1Average hops = 1 (1875954 samples)
traffic_manager/hop_stats_freq = [ 0 1875954 0 0 0 0 0 0 0 0 0 0 0 0 0 0 0 0 0 0 ];
----------------------------END-of-Interconnect-DETAILS-------------------------

gpgpu_simulation_time = 0 days, 0 hrs, 18 min, 18 sec (1098 sec)
gpgpu_simulation_rate = 337625 (inst/sec)
gpgpu_simulation_rate = 1059 (cycle/sec)

