

        *** GPGPU-Sim Simulator Version 3.2.1  [build 15629] ***


               1=functional simulation only, 0=detailed performance simulator)
GPGPU-Sim: Configuration options:

-network_mode                           1 # Interconnection network mode
-inter_config_file   config_fermi_islip.icnt # Interconnection network config file
-gpgpu_ptx_use_cuobjdump                    1 # Use cuobjdump to extract ptx and sass from binaries
-gpgpu_experimental_lib_support                    0 # Try to extract code from cuda libraries [Broken because of unknown cudaGetExportTable]
-gpgpu_ptx_convert_to_ptxplus                    0 # Convert SASS (native ISA) to ptxplus and run ptxplus
-gpgpu_ptx_force_max_capability                   20 # Force maximum compute capability
-gpgpu_ptx_inst_debug_to_file                    0 # Dump executed instructions' debug information to file
-gpgpu_ptx_inst_debug_file       inst_debug.txt # Executed instructions' debug output file
-gpgpu_ptx_inst_debug_thread_uid                    1 # Thread UID for executed instructions' debug output
-gpgpu_simd_model                       1 # 1 = post-dominator
-gpgpu_shader_core_pipeline              1536:32 # shader core pipeline config, i.e., {<nthread>:<warpsize>}
-gpgpu_tex_cache:l1  4:128:24,L:R:m:N,F:128:4,128:2 # per-shader L1 texture cache  (READ-ONLY) config  {<nsets>:<bsize>:<assoc>,<rep>:<wr>:<alloc>:<wr_alloc>,<mshr>:<N>:<merge>,<mq>:<rf>}
-gpgpu_const_cache:l1 64:64:2,L:R:f:N,A:2:32,4 # per-shader L1 constant memory cache  (READ-ONLY) config  {<nsets>:<bsize>:<assoc>,<rep>:<wr>:<alloc>:<wr_alloc>,<mshr>:<N>:<merge>,<mq>} 
-gpgpu_cache:il1     4:128:4,L:R:f:N,A:2:32,4 # shader L1 instruction cache config  {<nsets>:<bsize>:<assoc>,<rep>:<wr>:<alloc>:<wr_alloc>,<mshr>:<N>:<merge>,<mq>} 
-gpgpu_cache:dl1     32:128:4,L:L:m:N,A:32:8,8 # per-shader L1 data cache config  {<nsets>:<bsize>:<assoc>,<rep>:<wr>:<alloc>:<wr_alloc>,<mshr>:<N>:<merge>,<mq> | none}
-gpgpu_perfect_mem                      0 # enable perfect memory mode (no cache miss)
-n_regfile_gating_group                    4 # group of lanes that should be read/written together)
-gpgpu_clock_gated_reg_file                    0 # enable clock gated reg file for power calculations
-gpgpu_clock_gated_lanes                    0 # enable clock gated lanes for power calculations
-gpgpu_shader_registers                32768 # Number of registers per shader core. Limits number of concurrent CTAs. (default 8192)
-gpgpu_shader_cta                       8 # Maximum number of concurrent CTAs in shader (default 8)
-gpgpu_n_clusters                      14 # number of processing clusters
-gpgpu_n_cores_per_cluster                    1 # number of simd cores per cluster
-gpgpu_n_cluster_ejection_buffer_size                    8 # number of packets in ejection buffer
-gpgpu_n_ldst_response_buffer_size                    2 # number of response packets in ld/st unit ejection buffer
-gpgpu_shmem_size                   16384 # Size of shared memory per shader core (default 16kB)
-gpgpu_shmem_num_banks                   32 # Number of banks in the shared memory in each shader core (default 16)
-gpgpu_shmem_limited_broadcast                    0 # Limit shared memory to do one broadcast per cycle (default on)
-gpgpu_shmem_warp_parts                    1 # Number of portions a warp is divided into for shared memory bank conflict check 
-gpgpu_warpdistro_shader                   -1 # Specify which shader core to collect the warp size distribution from
-gpgpu_warp_issue_shader                    0 # Specify which shader core to collect the warp issue distribution from
-gpgpu_local_mem_map                    1 # Mapping from local memory space address to simulated GPU physical address space (default = enabled)
-gpgpu_num_reg_banks                   16 # Number of register banks (default = 8)
-gpgpu_reg_bank_use_warp_id                    0 # Use warp ID in mapping registers to banks (default = off)
-gpgpu_operand_collector_num_units_sp                    6 # number of collector units (default = 4)
-gpgpu_operand_collector_num_units_sfu                    8 # number of collector units (default = 4)
-gpgpu_operand_collector_num_units_mem                    2 # number of collector units (default = 2)
-gpgpu_operand_collector_num_units_gen                    0 # number of collector units (default = 0)
-gpgpu_operand_collector_num_in_ports_sp                    2 # number of collector unit in ports (default = 1)
-gpgpu_operand_collector_num_in_ports_sfu                    1 # number of collector unit in ports (default = 1)
-gpgpu_operand_collector_num_in_ports_mem                    1 # number of collector unit in ports (default = 1)
-gpgpu_operand_collector_num_in_ports_gen                    0 # number of collector unit in ports (default = 0)
-gpgpu_operand_collector_num_out_ports_sp                    2 # number of collector unit in ports (default = 1)
-gpgpu_operand_collector_num_out_ports_sfu                    1 # number of collector unit in ports (default = 1)
-gpgpu_operand_collector_num_out_ports_mem                    1 # number of collector unit in ports (default = 1)
-gpgpu_operand_collector_num_out_ports_gen                    0 # number of collector unit in ports (default = 0)
-gpgpu_coalesce_arch                   13 # Coalescing arch (default = 13, anything else is off for now)
-gpgpu_num_sched_per_core                    2 # Number of warp schedulers per core
-gpgpu_max_insn_issue_per_warp                    1 # Max number of instructions that can be issued per warp in one cycle by scheduler
-gpgpu_simt_core_sim_order                    1 # Select the simulation order of cores in a cluster (0=Fix, 1=Round-Robin)
-gpgpu_pipeline_widths        2,1,1,2,1,1,2 # Pipeline widths ID_OC_SP,ID_OC_SFU,ID_OC_MEM,OC_EX_SP,OC_EX_SFU,OC_EX_MEM,EX_WB
-gpgpu_num_sp_units                     2 # Number of SP units (default=1)
-gpgpu_num_sfu_units                    1 # Number of SF units (default=1)
-gpgpu_num_mem_units                    1 # Number if ldst units (default=1) WARNING: not hooked up to anything
-gpgpu_scheduler                      lrr # Scheduler configuration: < lrr | gto | two_level_active > If two_level_active:<num_active_warps>:<inner_prioritization>:<outer_prioritization>For complete list of prioritization values see shader.h enum scheduler_prioritization_typeDefault: gto
-gpgpu_dram_scheduler                    1 # 0 = fifo, 1 = FR-FCFS (defaul)
-gpgpu_dram_partition_queues              8:8:8:8 # i2$:$2d:d2$:$2i
-l2_ideal                               0 # Use a ideal L2 cache that always hit
-gpgpu_cache:dl2     64:128:16,L:B:m:W,A:32:4,4 # unified banked L2 data cache config  {<nsets>:<bsize>:<assoc>,<rep>:<wr>:<alloc>:<wr_alloc>,<mshr>:<N>:<merge>,<mq>}
-gpgpu_cache:dl2_texture_only                    0 # L2 cache used for texture only
-gpgpu_n_mem                            5 # number of memory modules (e.g. memory controllers) in gpu
-gpgpu_n_mem_per_ctrlr                    2 # number of memory chips per memory controller
-gpgpu_memlatency_stat                   14 # track and display latency statistics 0x2 enables MC, 0x4 enables queue logs
-gpgpu_frfcfs_dram_sched_queue_size                   16 # 0 = unlimited (default); # entries per chip
-gpgpu_dram_return_queue_size                    0 # 0 = unlimited (default); # entries per chip
-gpgpu_dram_buswidth                    4 # default = 4 bytes (8 bytes per cycle at DDR)
-gpgpu_dram_burst_length                    8 # Burst length of each DRAM request (default = 4 data bus cycle)
-dram_data_command_freq_ratio                    4 # Frequency ratio between DRAM data bus and command bus (default = 2 times, i.e. DDR)
-gpgpu_dram_timing_opt nbk=16:CCD=2:RRD=6:RCD=12:RAS=28:RP=12:RC=40: CL=12:WL=4:CDLR=5:WR=12:nbkgrp=4:CCDL=3:RTPL=2 # DRAM timing parameters = {nbk:tCCD:tRRD:tRCD:tRAS:tRP:tRC:CL:WL:tCDLR:tWR:nbkgrp:tCCDL:tRTPL}
-rop_latency                          120 # ROP queue latency (default 85)
-dram_latency                         100 # DRAM latency (default 30)
-gpgpu_mem_addr_mapping dramid@8;00000000.00000000.00000000.00000000.0000RRRR.RRRRRRRR.BBBBCCCC.CCSSSSSS # mapping memory address to dram model {dramid@<start bit>;<memory address map>}
-gpgpu_mem_addr_test                    0 # run sweep test to check address mapping for aliased address
-gpgpu_mem_address_mask                    1 # 0 = old addressing mask, 1 = new addressing mask, 2 = new add. mask + flipped bank sel and chip sel bits
-gpuwattch_xml_file         gpuwattch.xml # GPUWattch XML file
-power_simulation_enabled                    1 # Turn on power simulator (1=On, 0=Off)
-power_per_cycle_dump                    0 # Dump detailed power output each cycle
-power_trace_enabled                    1 # produce a file for the power trace (1=On, 0=Off)
-power_trace_zlevel                     6 # Compression level of the power trace output log (0=no comp, 9=highest)
-steady_power_levels_enabled                    0 # produce a file for the steady power levels (1=On, 0=Off)
-steady_state_definition                  8:4 # allowed deviation:number of samples
-gpgpu_max_cycle                        0 # terminates gpu simulation early (0 = no limit)
-gpgpu_max_insn                         0 # terminates gpu simulation early (0 = no limit)
-gpgpu_max_cta                          0 # terminates gpu simulation early (0 = no limit)
-gpgpu_runtime_stat                   500 # display runtime statistics such as dram utilization {<freq>:<flag>}
-gpgpu_flush_l1_cache                    0 # Flush L1 cache at the end of each kernel call
-gpgpu_flush_l2_cache                    0 # Flush L2 cache at the end of each kernel call
-gpgpu_deadlock_detect                    1 # Stop the simulation at deadlock (1=on (default), 0=off)
-gpgpu_ptx_instruction_classification                    0 # if enabled will classify ptx instruction types per kernel (Max 255 kernels now)
-gpgpu_ptx_sim_mode                     0 # Select between Performance (default) or Functional simulation (1)
-gpgpu_clock_domains 600.0:1200.0:600.0:600.0 # Clock Domain Frequencies in MhZ {<Core Clock>:<ICNT Clock>:<L2 Clock>:<DRAM Clock>}
-gpgpu_max_concurrent_kernel                    8 # maximum kernels that can run concurrently on GPU
-gpgpu_cflog_interval                    0 # Interval between each snapshot in control flow logger
-visualizer_enabled                     0 # Turn on visualizer output (1=On, 0=Off)
-visualizer_outputfile                 NULL # Specifies the output log file for visualizer
-visualizer_zlevel                      6 # Compression level of the visualizer output log (0=no comp, 9=highest)
-trace_enabled                          0 # Turn on traces
-trace_components                    none # comma seperated list of traces to enable. Complete list found in trace_streams.tup. Default none
-trace_sampling_core                    0 # The core which is printed using CORE_DPRINTF. Default 0
-enable_ptx_file_line_stats                    1 # Turn on PTX source line statistic profiling. (1 = On)
-ptx_line_stats_filename gpgpu_inst_stats.txt # Output file for PTX source line statistics.
-save_embedded_ptx                      0 # saves ptx files embedded in binary as <n>.ptx
-keep                                   0 # keep intermediate files created by GPGPU-Sim when interfacing with external programs
-gpgpu_ptx_save_converted_ptxplus                    0 # Saved converted ptxplus to a file
-ptx_opcode_latency_int         4,13,4,5,145 # Opcode latencies for integers <ADD,MAX,MUL,MAD,DIV>Default 1,1,19,25,145
-ptx_opcode_latency_fp          4,13,4,5,39 # Opcode latencies for single precision floating points <ADD,MAX,MUL,MAD,DIV>Default 1,1,1,1,30
-ptx_opcode_latency_dp         8,19,8,8,330 # Opcode latencies for double precision floating points <ADD,MAX,MUL,MAD,DIV>Default 8,8,8,8,335
-ptx_opcode_initiation_int            1,2,2,1,8 # Opcode initiation intervals for integers <ADD,MAX,MUL,MAD,DIV>Default 1,1,4,4,32
-ptx_opcode_initiation_fp            1,2,1,1,4 # Opcode initiation intervals for single precision floating points <ADD,MAX,MUL,MAD,DIV>Default6f4125ac685f3abdb5d6eb8876413043  /tmp/tmp.Z3BrXIBu0J/cutcp__SIZE1_1
 1,1,1,1,5
-ptx_opcode_initiation_dp         8,16,8,8,130 # Opcode initiation intervals for double precision floating points <ADD,MAX,MUL,MAD,DIV>Default 8,8,8,8,130
DRAM Timing Options:
nbk                                    16 # number of banks
CCD                                     2 # column to column delay
RRD                                     6 # minimal delay between activation of rows in different banks
RCD                                    12 # row to column delay
RAS                                    28 # time needed to activate row
RP                                     12 # time needed to precharge (deactivate) row
RC                                     40 # row cycle time
CDLR                                    5 # switching from write to read (changes tWTR)
WR                                     12 # last data-in to row precharge
CL                                     12 # CAS latency
WL                                      4 # Write latency
nbkgrp                                  4 # number of bank groups
CCDL                                    3 # column to column delay between accesses to different bank groups
RTPL                                    2 # read to precharge delay between accesses to different bank groups
addr_dec_mask[CHIP]  = 0000000000000000 	high:64 low:0
addr_dec_mask[BK]    = 000000000000f000 	high:16 low:12
addr_dec_mask[ROW]   = 000000000fff0000 	high:28 low:16
addr_dec_mask[COL]   = 0000000000000fff 	high:12 low:0
addr_dec_mask[BURST] = 000000000000003f 	high:6 low:0
*** Initializing Memory Statistics ***
self exe links to: /tmp/tmp.Z3BrXIBu0J/cutcp__SIZE1_1
Running md5sum using "md5sum /tmp/tmp.Z3BrXIBu0J/cutcp__SIZE1_1 "
Running cuobjdump using "$CUDA_INSTALL_PATH/bin/cuobjdump -ptx -elf -sass /tmp/tmp.Z3BrXIBu0J/cutcp__SIZE1_1 > _cuobjdump_complete_output_rqp9yv"
Parsing file _cuobjdump_complete_output_rqp9yv
######### cuobjdump parser ########
## Adding new section PTX
Adding ptx filename: _cuobjdump_1.ptx
Adding arch: sm_13
Adding identifier: benchmarks/cutcp/cutcp.cu
## Adding new section ELF
Adding arch: sm_13
Adding identifier: benchmarks/cutcp/cutcp.cu
Done parsing!!!
Adding _cuobjdump_1.ptx with cubin handle 1
Running: cat _ptx_ZZGev7 | sed 's/.version 1.5/.version 1.4/' | sed 's/, texmode_independent//' | sed 's/\(\.extern \.const\[1\] .b8 \w\+\)\[\]/\1\[1\]/' | sed 's/const\[.\]/const\[0\]/g' > _ptx2_rgflrJ
GPGPU-Sim PTX registering constant NbrListLen (4 bytes) to name mapping
GPGPU-Sim PTX registering constant NbrList (15972 bytes) to name mapping
read 96603 atoms from file '/home/cnugteren/software/parboil-2.5/datasets/cutcp/large/input/watbox.sl100.pqr'
extent of domain is:
  minimum -49.998 -49.997 -49.996
  maximum 50 49.99 49.971
padding domain by 0.5 Angstroms
domain lengths are 100.998 by 100.987 by 100.967

Invoking CUDA kernel on 2 region planes...
  computing plane 0
kernel '_Z29cuda_cutoff_potential_latticeiiP6float4fffPfi' transfer to GPU hardware scheduler
kernel_name = _Z29cuda_cutoff_potential_latticeiiP6float4fffPfi 
kernel_launch_uid = 1 
gpu_sim_cycle = 18330532
gpu_sim_insn = 12113348856
gpu_ipc =     660.8291
gpu_tot_sim_cycle = 18330532
gpu_tot_sim_insn = 12113348856
gpu_tot_ipc =     660.8291
gpu_tot_issued_cta = 0
gpu_stall_dramfull = 18132
gpu_stall_icnt2sh    = 49042
gpu_total_sim_rate=383042
Cache L1D_000:	Size = 16384 B (32 Set x 4-way x 128 byte line)
		Access = 129310, Miss = 60505 (0.468), PendingHit = 188 (0.00145)
Cache L1D_001:	Size = 16384 B (32 Set x 4-way x 128 byte line)
		Access = 129980, Miss = 60385 (0.465), PendingHit = 550 (0.00423)
Cache L1D_002:	Size = 16384 B (32 Set x 4-way x 128 byte line)
		Access = 129310, Miss = 58201 (0.45), PendingHit = 1367 (0.0106)
Cache L1D_003:	Size = 16384 B (32 Set x 4-way x 128 byte line)
		Access = 130650, Miss = 60391 (0.462), PendingHit = 814 (0.00623)
Cache L1D_004:	Size = 16384 B (32 Set x 4-way x 128 byte line)
		Access = 130650, Miss = 54764 (0.419), PendingHit = 2782 (0.0213)
Cache L1D_005:	Size = 16384 B (32 Set x 4-way x 128 byte line)
		Access = 129310, Miss = 58186 (0.45), PendingHit = 1035 (0.008)
Cache L1D_006:	Size = 16384 B (32 Set x 4-way x 128 byte line)
		Access = 129310, Miss = 59708 (0.462), PendingHit = 832 (0.00643)
Cache L1D_007:	Size = 16384 B (32 Set x 4-way x 128 byte line)
		Access = 130650, Miss = 58000 (0.444), PendingHit = 947 (0.00725)
Cache L1D_008:	Size = 16384 B (32 Set x 4-way x 128 byte line)
		Access = 128640, Miss = 53954 (0.419), PendingHit = 2014 (0.0157)
Cache L1D_009:	Size = 16384 B (32 Set x 4-way x 128 byte line)
		Access = 128640, Miss = 59421 (0.462), PendingHit = 295 (0.00229)
Cache L1D_010:	Size = 16384 B (32 Set x 4-way x 128 byte line)
		Access = 128640, Miss = 59710 (0.464), PendingHit = 127 (0.000987)
Cache L1D_011:	Size = 16384 B (32 Set x 4-way x 128 byte line)
		Access = 128640, Miss = 59570 (0.463), PendingHit = 333 (0.00259)
Cache L1D_012:	Size = 16384 B (32 Set x 4-way x 128 byte line)
		Access = 129310, Miss = 58640 (0.453), PendingHit = 831 (0.00643)
Cache L1D_013:	Size = 16384 B (32 Set x 4-way x 128 byte line)
		Access = 128640, Miss = 61309 (0.477), PendingHit = 146 (0.00113)
total_dl1_misses=822744
total_dl1_accesses=1811680
total_dl1_miss_rate= 0.454133
Shader 0 dynamic_warp_id issue ditsribution:
dynamic_warp_id:
0, 1, 2, 3, 4, 5, 6, 7, 8, 9, 10, 11, 12, 13, 14, 15, 16, 17, 18, 19, 20, 21, 22, 23, 24, 25, 26, 27, 28, 29, 30, 31, 32, 33, 34, 35, 36, 37, 38, 39, 40, 41, 42, 43, 44, 45, 46, 47, 48, 49, 50, 51, 52, 53, 54, 55, 56, 57, 58, 59, 60, 61, 62, 63, 64, 65, 66, 67, 68, 69, 70, 71, 72, 73, 74, 75, 76, 77, 78, 79, 80, 81, 82, 83, 84, 85, 86, 87, 88, 89, 90, 91, 92, 93, 94, 95, 96, 97, 98, 99, 100, 101, 102, 103, 104, 105, 106, 107, 108, 109, 110, 111, 112, 113, 114, 115, 116, 117, 118, 119, 120, 121, 122, 123, 124, 125, 126, 127, 128, 129, 130, 131, 132, 133, 134, 135, 136, 137, 138, 139, 140, 141, 142, 143, 144, 145, 146, 147, 148, 149, 150, 151, 152, 153, 154, 155, 156, 157, 158, 159, 160, 161, 162, 163, 164, 165, 166, 167, 168, 169, 170, 171, 172, 173, 174, 175, 176, 177, 178, 179, 180, 181, 182, 183, 184, 185, 186, 187, 188, 189, 190, 191, 192, 193, 194, 195, 196, 197, 198, 199, 200, 201, 202, 203, 204, 205, 206, 207, 208, 209, 210, 211, 212, 213, 214, 215, 216, 217, 218, 219, 220, 221, 222, 223, 224, 225, 226, 227, 228, 229, 230, 231, 232, 233, 234, 235, 236, 237, 238, 239, 240, 241, 242, 243, 244, 245, 246, 247, 248, 249, 250, 251, 252, 253, 254, 255, 256, 257, 258, 259, 260, 261, 262, 263, 264, 265, 266, 267, 268, 269, 270, 271, 272, 273, 274, 275, 276, 277, 278, 279, 280, 281, 282, 283, 284, 285, 286, 287, 288, 289, 290, 291, 292, 293, 294, 295, 296, 297, 298, 299, 300, 301, 302, 303, 304, 305, 306, 307, 308, 309, 310, 311, 312, 313, 314, 315, 316, 317, 318, 319, 320, 321, 322, 323, 324, 325, 326, 327, 328, 329, 330, 331, 332, 333, 334, 335, 336, 337, 338, 339, 340, 341, 342, 343, 344, 345, 346, 347, 348, 349, 350, 351, 352, 353, 354, 355, 356, 357, 358, 359, 360, 361, 362, 363, 364, 365, 366, 367, 368, 369, 370, 371, 372, 373, 374, 375, 376, 377, 378, 379, 380, 381, 382, 383, 384, 385, 386, 387, 388, 389, 390, 391, 392, 393, 394, 395, 396, 397, 398, 399, 400, 401, 402, 403, 404, 405, 406, 407, 408, 409, 410, 411, 412, 413, 414, 415, 416, 417, 418, 419, 420, 421, 422, 423, 424, 425, 426, 427, 428, 429, 430, 431, 432, 433, 434, 435, 436, 437, 438, 439, 440, 441, 442, 443, 444, 445, 446, 447, 448, 449, 450, 451, 452, 453, 454, 455, 456, 457, 458, 459, 460, 461, 462, 463, 464, 465, 466, 467, 468, 469, 470, 471, 472, 473, 474, 475, 476, 477, 478, 479, 480, 481, 482, 483, 484, 485, 486, 487, 488, 489, 490, 491, 492, 493, 494, 495, 496, 497, 498, 499, 500, 501, 502, 503, 504, 505, 506, 507, 508, 509, 510, 511, 512, 513, 514, 515, 516, 517, 518, 519, 520, 521, 522, 523, 524, 525, 526, 527, 528, 529, 530, 531, 532, 533, 534, 535, 536, 537, 538, 539, 540, 541, 542, 543, 544, 545, 546, 547, 548, 549, 550, 551, 552, 553, 554, 555, 556, 557, 558, 559, 560, 561, 562, 563, 564, 565, 566, 567, 568, 569, 570, 571, 572, 573, 574, 575, 576, 577, 578, 579, 580, 581, 582, 583, 584, 585, 586, 587, 588, 589, 590, 591, 592, 593, 594, 595, 596, 597, 598, 599, 600, 601, 602, 603, 604, 605, 606, 607, 608, 609, 610, 611, 612, 613, 614, 615, 616, 617, 618, 619, 620, 621, 622, 623, 624, 625, 626, 627, 628, 629, 630, 631, 632, 633, 634, 635, 636, 637, 638, 639, 640, 641, 642, 643, 644, 645, 646, 647, 648, 649, 650, 651, 652, 653, 654, 655, 656, 657, 658, 659, 660, 661, 662, 663, 664, 665, 666, 667, 668, 669, 670, 671, 672, 673, 674, 675, 676, 677, 678, 679, 680, 681, 682, 683, 684, 685, 686, 687, 688, 689, 690, 691, 692, 693, 694, 695, 696, 697, 698, 699, 700, 701, 702, 703, 704, 705, 706, 707, 708, 709, 710, 711, 712, 713, 714, 715, 716, 717, 718, 719, 720, 721, 722, 723, 724, 725, 726, 727, 728, 729, 730, 731, 732, 733, 734, 735, 736, 737, 738, 739, 740, 741, 742, 743, 744, 745, 746, 747, 748, 749, 750, 751, 752, 753, 754, 755, 756, 757, 758, 759, 760, 761, 762, 763, 764, 765, 766, 767, 768, 769, 770, 771, 
distro:
26494, 27007, 26647, 27232, 27377, 27926, 27521, 28133, 26045, 26432, 26108, 26594, 26634, 27048, 26733, 27219, 26951, 27428, 27104, 27581, 27349, 27997, 27475, 28069, 15557, 15854, 15602, 15917, 24832, 25057, 24922, 25201, 31901, 32243, 32072, 32423, 31777, 32146, 32011, 32317, 31679, 32093, 31868, 32336, 32532, 32982, 32694, 33090, 31520, 31970, 31709, 32141, 28921, 29281, 29101, 29470, 23404, 23584, 23530, 23719, 23962, 24043, 24133, 24187, 36688, 36994, 36958, 37255, 37298, 37595, 37442, 37955, 36800, 37106, 37079, 37403, 37682, 37997, 37844, 38231, 36031, 36265, 36274, 36499, 36922, 37282, 37174, 37471, 36667, 36676, 36919, 36955, 42257, 42239, 42464, 42437, 41620, 41566, 41818, 41872, 43410, 43482, 43671, 43707, 41531, 41540, 41756, 41720, 42494, 42422, 42773, 42764, 33107, 33089, 33251, 33341, 26336, 26291, 26462, 26426, 31820, 31757, 32000, 31964, 44404, 44395, 44674, 44647, 42709, 42772, 42907, 42970, 43569, 43659, 43857, 43857, 42260, 42404, 42512, 42656, 41698, 41707, 41932, 41959, 37622, 37559, 37910, 37829, 42782, 42863, 43106, 43133, 42524, 42578, 42740, 42776, 43466, 43574, 43727, 43817, 44520, 44709, 44799, 44880, 42814, 42859, 43084, 43147, 43066, 43165, 43282, 43453, 22389, 22362, 22506, 22497, 22821, 22785, 22884, 22875, 32836, 32728, 32980, 32863, 44063, 44153, 44324, 44378, 43877, 43850, 44093, 44138, 43542, 43569, 43821, 43839, 42916, 42934, 43276, 43213, 43942, 43861, 44023, 44050, 39497, 39506, 39749, 39740, 32368, 32413, 32593, 32602, 38171, 38297, 38342, 38414, 44466, 44457, 44736, 44691, 42993, 42921, 43299, 43155, 43641, 43434, 43830, 43749, 43504, 43549, 43702, 43747, 38454, 38553, 38643, 38796, 34277, 34277, 34394, 34421, 44059, 43978, 44356, 44257, 44142, 44286, 44385, 44529, 42985, 42904, 43255, 43219, 43684, 43693, 43972, 43900, 43419, 43302, 43617, 43563, 42929, 43010, 43226, 43271, 26476, 26404, 26575, 26548, 43009, 42955, 43243, 43117, 43240, 43195, 43654, 43483, 43592, 43610, 43826, 43835, 42872, 42800, 43187, 43106, 42780, 42726, 43050, 43032, 42570, 42480, 42813, 42759, 28241, 28250, 28403, 28403, 22709, 22727, 22799, 22835, 43558, 43540, 43864, 43828, 43920, 43830, 44154, 44037, 44129, 44174, 44516, 44462, 43911, 43893, 44145, 44136, 42189, 42207, 42414, 42450, 42448, 42484, 42718, 42727, 27258, 27294, 27384, 27465, 32087, 31997, 32303, 32222, 42788, 42824, 43058, 43022, 42550, 42532, 42721, 42838, 43531, 43576, 43819, 43783, 42776, 42830, 43046, 43046, 43360, 43306, 43621, 43621, 38870, 38789, 39059, 39041, 28958, 28985, 29066, 29093, 44335, 44362, 44632, 44668, 43510, 43492, 43834, 43807, 42645, 42609, 42897, 42915, 43296, 43341, 43521, 43620, 42025, 42187, 42322, 42376, 44143, 44170, 44413, 44377, 32752, 32743, 32986, 32959, 33481, 33454, 33661, 33571, 43920, 44019, 44154, 44271, 43403, 43286, 43628, 43529, 41819, 41729, 42035, 41963, 42648, 42639, 42936, 42972, 39056, 39155, 39353, 39398, 39596, 39605, 39785, 39803, 27826, 27880, 28006, 28024, 43802, 43721, 44108, 44054, 42196, 42169, 42439, 42484, 41674, 41665, 41872, 41818, 43168, 43204, 43384, 43429, 43133, 43007, 43421, 43241, 43138, 42913, 43399, 43255, 39204, 39222, 39312, 39483, 44068, 44059, 44248, 44275, 44626, 44707, 44869, 44923, 41348, 41447, 41681, 41672, 43175, 43004, 43346, 43256, 43863, 43845, 44115, 44052, 34392, 34446, 34500, 34626, 23078, 23096, 23177, 23204, 32572, 32518, 32806, 32833, 44309, 44309, 44543, 44588, 42258, 42105, 42438, 42420, 42692, 42683, 42935, 42899, 42703, 42712, 42937, 43018, 42880, 42880, 43087, 43123, 38175, 38175, 38337, 38373, 37406, 37343, 37613, 37604, 41873, 41873, 42152, 42125, 43592, 43475, 43844, 43736, 42291, 42390, 42552, 42579, 41968, 42040, 42211, 42283, 42698, 42716, 42995, 42896, 32706, 32724, 32949, 32850, 28003, 27967, 28138, 28111, 32055, 32046, 32244, 32226, 42142, 42124, 42466, 42403, 42486, 42459, 42729, 42711, 43609, 43645, 43852, 43879, 42521, 42665, 42701, 42863, 43006, 43051, 43267, 43321, 38738, 38738, 38963, 39008, 37417, 37345, 37570, 37561, 41724, 41724, 41976, 41985, 42339, 42276, 42627, 42582, 43995, 44130, 44238, 44391, 43384, 43465, 43663, 43690, 43448, 43322, 43655, 43556, 33778, 33751, 34030, 33922, 28647, 28557, 28773, 28701, 37985, 37922, 38120, 38102, 44075, 44093, 44300, 44363, 42116, 42323, 42431, 42476, 42858, 42858, 43038, 43128, 42229, 42175, 42427, 42355, 43579, 43651, 43840, 43876, 33458, 33431, 33674, 33629, 42639, 42747, 42936, 42990, 43413, 43485, 43611, 43710, 43832, 43850, 44102, 44093, 44549, 44693, 44756, 44945, 43890, 43944, 44115, 44250, 43883, 43865, 44189, 44063, 23144, 23189, 23225, 23261, 29076, 28923, 29265, 29049, 37909, 37792, 38143, 37972, 38310, 38247, 38598, 38445, 40099, 39937, 40297, 40117, 39350, 39188, 39593, 39413, 38839, 38722, 39073, 38956, 34347, 34212, 34626, 34356, 20719, 20692, 20827, 20773, 29244, 28947, 29370, 29091, 33795, 33498, 34074, 33651, 34023, 33744, 34149, 33870, 35475, 35187, 35772, 35403, 35358, 34863, 35529, 35052, 35248, 34870, 35437, 34987, 26569, 26272, 26659, 26425, 22546, 22195, 22699, 22321, 25804, 25381, 25984, 25480, 28668, 28272, 28866, 28407, 30120, 29562, 30291, 29724, 28934, 28493, 29132, 28610, 28873, 28351, 29062, 28504, 26515, 26191, 26668, 26290, 23062, 22720, 23188, 22801, 21174, 20832, 21300, 20940, 23239, 22789, 23329, 22852, 23793, 23181, 23865, 23244, 24467, 23819, 24611, 23927, 23834, 23330, 23969, 23456, 23216, 22775, 23288, 22847, 19276, 18871, 19375, 18970, 
gpgpu_n_tot_thrd_icount = 12911309440
gpgpu_n_tot_w_icount = 403478420
gpgpu_n_icache_hits = 219780655
gpgpu_n_icache_misses = 2019
gpgpu_n_l1dcache_read_hits = 976675
gpgpu_n_l1dcache_read_misses = 835005
gpgpu_n_l1dcache_write_accesses = 10816
gpgpu_n_l1dcache_wirte_misses = 10816
gpgpu_n_tcache_hits = 0
gpgpu_n_tcache_misses = 0
gpgpu_n_ccache_hits = 18205842
gpgpu_n_ccache_misses = 3970
gpgpu_n_stall_shd_mem = 2090192
gpgpu_n_mem_read_local = 0
gpgpu_n_mem_write_local = 0
gpgpu_n_mem_read_global = 822744
gpgpu_n_mem_write_global = 10816
gpgpu_n_mem_texture = 0
gpgpu_n_mem_const = 924
gpgpu_n_load_insn  = 57973760
gpgpu_n_store_insn = 692224
gpgpu_n_shmem_insn = 1435609022
gpgpu_n_tex_insn = 0
gpgpu_n_const_mem_insn = 87652864
gpgpu_n_param_mem_insn = 987034558
gpgpu_n_shmem_bkconflict = 0
gpgpu_n_cache_bkconflict = 0
gpgpu_n_intrawarp_mshr_merge = 0
gpgpu_n_cmem_portconflict = 283920
gpgpu_stall_shd_mem[c_mem][bk_conf] = 283920
gpgpu_stall_shd_mem[c_mem][mshr_rc] = 0
gpgpu_stall_shd_mem[c_mem][icnt_rc] = 0
gpgpu_stall_shd_mem[t_mem][mshr_rc] = 0
gpgpu_stall_shd_mem[t_mem][icnt_rc] = 0
gpgpu_stall_shd_mem[s_mem][bk_conf] = 903136
gpgpu_stall_shd_mem[gl_mem][bk_conf] = 0
gpgpu_stall_shd_mem[gl_mem][coal_stall] = 903136
gpgpu_stall_shd_mem[g_mem_ld][mshr_rc] = 0
gpgpu_stall_shd_mem[g_mem_ld][icnt_rc] = 0
gpgpu_stall_shd_mem[g_mem_ld][wb_icnt_rc] = 0
gpgpu_stall_shd_mem[g_mem_ld][wb_rsrv_fail] = 0
gpgpu_stall_shd_mem[g_mem_st][mshr_rc] = 0
gpgpu_stall_shd_mem[g_mem_st][icnt_rc] = 0
gpgpu_stall_shd_mem[g_mem_st][wb_icnt_rc] = 0
gpgpu_stall_shd_mem[g_mem_st][wb_rsrv_fail] = 0
gpgpu_stall_shd_mem[l_mem_ld][mshr_rc] = 0
gpgpu_stall_shd_mem[l_mem_ld][icnt_rc] = 0
gpgpu_stall_shd_mem[l_mem_ld][wb_icnt_rc] = 0
gpgpu_stall_shd_mem[l_mem_ld][wb_rsrv_fail] = 0
gpgpu_stall_shd_mem[l_mem_st][mshr_rc] = 0
gpgpu_stall_shd_mem[l_mem_st][icnt_rc] = 0
gpgpu_stall_shd_mem[l_mem_ld][wb_icnt_rc] = 0
gpgpu_stall_shd_mem[l_mem_ld][wb_rsrv_fail] = 0
gpu_reg_bank_conflict_stalls = 0
Warp Occupancy Distribution:
Stall:12221202	W0_Idle:140883	W0_Scoreboard:96360009	W1:1163250	W2:788031	W3:874305	W4:843480	W5:542115	W6:810153	W7:445527	W8:846018	W9:470268	W10:581112	W11:454743	W12:696015	W13:440748	W14:651438	W15:440217	W16:822593	W17:401139	W18:575964	W19:399249	W20:641556	W21:428319	W22:622890	W23:408276	W24:700578	W25:409419	W26:576828	W27:369378	W28:749367	W29:589293	W30:588303	W31:1062855	W32:384084993
maxmrqlatency = 93 
maxdqlatency = 0 
maxmflatency = 516 
averagemflatency = 131 
max_icnt2mem_latency = 254 
max_icnt2sh_latency = 18330531 
mrq_lat_table:12250 	137 	5460 	3134 	6900 	948 	11 	0 	0 	0 	0 	0 	0 	0 	0 	0 	0 	0 	0 	0 	0 	0 	0 	0 	0 	0 	0 	0 	0 	0 	0 	0 	
dq_lat_table:0 	0 	0 	0 	0 	0 	0 	0 	0 	0 	0 	0 	0 	0 	0 	0 	0 	0 	0 	0 	0 	0 	0 	0 	0 	0 	0 	0 	0 	0 	0 	0 	
mf_lat_table:0 	0 	0 	0 	0 	0 	391380 	433072 	10031 	1 	0 	0 	0 	0 	0 	0 	0 	0 	0 	0 	0 	0 	0 	0 	0 	0 	0 	0 	0 	0 	0 	0 	
icnt2mem_lat_table:134 	821415 	11818 	200 	190 	231 	433 	245 	0 	0 	0 	0 	0 	0 	0 	0 	0 	0 	0 	0 	0 	0 	0 	0 	
icnt2sh_lat_table:0 	398287 	418313 	7054 	14 	0 	0 	0 	0 	0 	0 	0 	0 	0 	0 	0 	0 	168 	168 	352 	656 	1180 	2296 	4696 	
mf_lat_pw_table:1300 	0 	0 	0 	0 	0 	22981 	10670 	57 	0 	0 	0 	0 	0 	0 	0 	0 	0 	0 	0 	0 	0 	0 	0 	0 	0 	0 	0 	0 	0 	0 	0 	
maximum concurrent accesses to same row:
dram[0]:        64        64        64        64        64        64        64        64        64        64        64        64        64        64        64        64 
dram[1]:        64        64        64        64        64        64        64        64        64        64        64        64        64        64        64        64 
dram[2]:        64        64        64        64        64        64        64        64        64        64        64        64        64        64        64        64 
dram[3]:        64        64        64        64        64        64        64        64        64        64        64        64        64        64        64        64 
dram[4]:        64        64        64        64        64        64        64        64        64        64        64        64        64        64        64        64 
maximum service time to same row:
dram[0]:   4591891   4575998   4710810   4581724   4577732   4806135   4698166   4447550   4629845   4662264   4538656   4527826   4648269   4586802   4456327   4575620 
dram[1]:   4591890   4573944   4710811   4581735   4577745   4806122   4698175   4447548   4629849   4662265   4540226   4527714   4648269   4586803   4457442   4575612 
dram[2]:   4594218   4579131   4707700   4580091   4598468   4809653   4701349   4443272   4662807   4681673   4510482   4523386   4652029   4590039   4456900   4577065 
dram[3]:   4587109   4577113   4707703   4569486   4598462   4809654   4709599   4443261   4662799   4681676   4462042   4550993   4652032   4590041   4463353   4577075 
dram[4]:   4579814   4586651   4705760   4562650   4631114   4808527   4719446   4404897   4673015   4683270   3904811   4562876   4653619   4587982   4457606   4594367 
average row accesses per activate:
dram[0]:  8.441860  8.380953  7.183673 10.057143 35.555557 29.090910 17.777779 18.105263 13.538462 10.444445  9.244445  9.454545  9.904762 12.689655 19.555555  8.380953 
dram[1]:  8.227273  7.652174  7.489362  7.822222 35.555557 29.090910 22.857143 18.105263 16.000000  8.545455  9.043478 10.146341 10.666667 11.030303 14.666667  7.822222 
dram[2]:  6.830189  8.380953  8.585366  8.380953 35.555557 29.090910 20.000000 20.352942 13.538462  9.894737  8.320000  9.674418 10.666667  9.282051 17.600000  7.183673 
dram[3]:  8.804878  7.652174  8.380953  8.186047 35.555557 24.615385 22.857143 23.066668 12.571428 10.000000  8.156863  9.904762 10.947369 11.677420 19.555555  7.040000 
dram[4]:  6.923077  8.186047  6.769231  8.750000 29.090910 29.090910 26.666666 20.352942 12.137931  9.268292  8.666667  9.454545  9.244445 10.400000 17.600000  7.822222 
average row locality = 28840/2636 = 10.940820
number of total memory accesses made:
dram[0]:         0         0         0         0         0         0         0         0         0         0         0         0         0         0         0         0 
dram[1]:         0         0         0         0         0         0         0         0         0         0         0         0         0         0         0         0 
dram[2]:         0         0         0         0         0         0         0         0         0         0         0         0         0         0         0         0 
dram[3]:         0         0         0         0         0         0         0         0         0         0         0         0         0         0         0         0 
dram[4]:         0         0         0         0         0         0         0         0         0         0         0         0         0         0         0         0 
total accesses: 0
min_bank_accesses = 0!
min_chip_accesses = 0!
number of total read accesses:
dram[0]:       235       224       224       224       192       192       192       216       224       236       256       256       256       232       224       224 
dram[1]:       234       224       224       224       192       192       192       216       224       236       256       256       256       230       224       224 
dram[2]:       234       224       224       224       192       192       192       218       224       236       256       256       256       228       224       224 
dram[3]:       233       224       224       224       192       192       192       218       224       238       256       256       256       228       224       224 
dram[4]:       232       224       224       222       192       192       192       218       224       238       256       256       256       230       224       224 
total reads: 18024
bank skew: 256/192 = 1.33
chip skew: 3607/3604 = 1.00
number of total write accesses:
dram[0]:       128       128       128       128       128       128       128       128       128       140       160       160       160       136       128       128 
dram[1]:       128       128       128       128       128       128       128       128       128       140       160       160       160       134       128       128 
dram[2]:       128       128       128       128       128       128       128       128       128       140       160       160       160       134       128       128 
dram[3]:       128       128       128       128       128       128       128       128       128       142       160       160       160       134       128       128 
dram[4]:       128       128       128       128       128       128       128       128       128       142       160       160       160       134       128       128 
total reads: 10816
bank skew: 160/128 = 1.25
chip skew: 2164/2162 = 1.00
average mf latency per bank:
dram[0]:       3820      4292      4832      3025      2784      3801      3082      2976      4840      4301      3290      4121      3848      2561      4178      4796
dram[1]:       3818      4312      4813      3006      2826      3820      3083      2987      4872      4283      3297      4153      3813      2566      4185      4786
dram[2]:       3845      4292      4814      3042      2819      3811      3106      2940      4851      4302      3296      4146      3835      2595      4164      4797
dram[3]:       3883      4273      4823      3094      2800      3805      3120      2934      4804      4273      3319      4109      3870      2613      4146      4809
dram[4]:       3873      4287      4820      3087      2787      3795      3104      2918      4813      4262      3317      4123      3858      2597      4128      4800
maximum mf latency per bank:
dram[0]:        285       284       284       282       483       283       284       340       447       284       379       389       285       286       394       283
dram[1]:        296       299       285       316       410       336       285       412       445       285       438       516       297       285       354       284
dram[2]:        285       285       285       283       386       313       284       448       304       290       354       450       298       283       469       287
dram[3]:        436       285       284       282       409       365       285       501       298       291       420       346       285       399       458       283
dram[4]:        309       283       297       283       428       317       282       374       370       328       397       285       296       402       297       285

Number of Memory Banks Accessed per Memory Operation per Warp (from 0):
0	0	0	0	0	0	0	0	0	0	0	0	0	0	0	0	0	0	0	0	0	0	0	0	0	0	0	0	0	0	0	0	0	0	0	0	0	0	0	0	0	0	0	0	0	0	0	0	0	0	0	0	0	0	0	0	0	0	0	0	0	0	0	0	0	0	0	0	0	0	0	0	0	0	0	0	0	0	0	0	
Average # of Memory Banks Accessed per Memory Operation per Warp=-nan

position of mrq chosen
0	0	0	0	0	0	0	0	0	0	0	0	0	0	0	0	

average position of mrq chosen = -nan
gpgpu_l2_write_miss = 0
gpgpu_l2_write_access = 0
gpgpu_l2_read_miss = 0
gpgpu_l2_read_access = 0
Cache L2_bank_000:
MSHR contents

DRAM[0]: 16 bks, busW=4 BL=8 CL=12, tRRD=2 tCCD=6, tRCD=12 tRAS=28 tRP=12 tRC=40
n_cmd=18330532 n_nop=18317988 n_act=509 n_pre=493 n_req=5771 n_rd=7214 n_write=4328 bw_util=0.001259
n_activity=99480 dram_eff=0.232
bk0: 470a 18327464i bk1: 448a 18327267i bk2: 448a 18327533i bk3: 448a 18327668i bk4: 384a 18327376i bk5: 384a 18327405i bk6: 384a 18327286i bk7: 432a 18327330i bk8: 448a 18326714i bk9: 472a 18326859i bk10: 512a 18326949i bk11: 512a 18327639i bk12: 512a 18326222i bk13: 464a 18325994i bk14: 448a 18325729i bk15: 448a 18314235i 
dram_util_bins: 0 0 0 0 0 0 0 0 0 0
dram_eff_bins: 0 0 0 0 0 0 0 0 0 0
mrqq: max=5 avg=0.00273047
Cache L2_bank_001:
MSHR contents

DRAM[1]: 16 bks, busW=4 BL=8 CL=12, tRRD=2 tCCD=6, tRCD=12 tRAS=28 tRP=12 tRC=40
n_cmd=18330532 n_nop=18317956 n_act=530 n_pre=514 n_req=5766 n_rd=7208 n_write=4324 bw_util=0.001258
n_activity=99991 dram_eff=0.2307
bk0: 468a 18327649i bk1: 448a 18327804i bk2: 448a 18327711i bk3: 448a 18327377i bk4: 384a 18327138i bk5: 384a 18327377i bk6: 384a 18327608i bk7: 432a 18327288i bk8: 448a 18326771i bk9: 472a 18326563i bk10: 512a 18326892i bk11: 512a 18327531i bk12: 512a 18326136i bk13: 460a 18325982i bk14: 448a 18325518i bk15: 448a 18313828i 
dram_util_bins: 0 0 0 0 0 0 0 0 0 0
dram_eff_bins: 0 0 0 0 0 0 0 0 0 0
mrqq: max=5 avg=0.00277848
Cache L2_bank_002:
MSHR contents

DRAM[2]: 16 bks, busW=4 BL=8 CL=12, tRRD=2 tCCD=6, tRCD=12 tRAS=28 tRP=12 tRC=40
n_cmd=18330532 n_nop=18317944 n_act=536 n_pre=520 n_req=5766 n_rd=7208 n_write=4324 bw_util=0.001258
n_activity=100355 dram_eff=0.2298
bk0: 468a 18327671i bk1: 448a 18327468i bk2: 448a 18327542i bk3: 448a 18327484i bk4: 384a 18327322i bk5: 384a 18327394i bk6: 384a 18327330i bk7: 436a 18327392i bk8: 448a 18326533i bk9: 472a 18326659i bk10: 512a 18326779i bk11: 512a 18327686i bk12: 512a 18326120i bk13: 456a 18326081i bk14: 448a 18325745i bk15: 448a 18313814i 
dram_util_bins: 0 0 0 0 0 0 0 0 0 0
dram_eff_bins: 0 0 0 0 0 0 0 0 0 0
mrqq: max=6 avg=0.00278535
Cache L2_bank_003:
MSHR contents
MSHR: tag=0x80150e80, atomic=0 1 entries : 0x8ebc1f0 :  mf: uid=239825797, sid04:w09, part=3, addr=0x80150e80, load , size=128, unknown  status = IN_PARTITION_DRAM (18330531), 

DRAM[3]: 16 bks, busW=4 BL=8 CL=12, tRRD=2 tCCD=6, tRCD=12 tRAS=28 tRP=12 tRC=40
n_cmd=18330532 n_nop=18317972 n_act=520 n_pre=504 n_req=5769 n_rd=7208 n_write=4328 bw_util=0.001259
n_activity=99880 dram_eff=0.231
bk0: 466a 18327535i bk1: 448a 18327538i bk2: 448a 18327637i bk3: 448a 18327622i bk4: 384a 18327436i bk5: 384a 18327408i bk6: 384a 18327298i bk7: 436a 18327294i bk8: 448a 18326709i bk9: 476a 18326825i bk10: 512a 18326835i bk11: 512a 18327453i bk12: 510a 18325959i bk13: 456a 18325892i bk14: 448a 18325779i bk15: 448a 18314112i 
dram_util_bins: 0 0 0 0 0 0 0 0 0 0
dram_eff_bins: 0 0 0 0 0 0 0 0 0 0
mrqq: max=6 avg=0.00273724
Cache L2_bank_004:
MSHR contents
MSHR: tag=0x80150f80, atomic=0 1 entries : 0x8ebc420 :  mf: uid=239825798, sid04:w11, part=4, addr=0x80150f80, load , size=128, unknown  status = IN_PARTITION_DRAM (18330531), 

DRAM[4]: 16 bks, busW=4 BL=8 CL=12, tRRD=2 tCCD=6, tRCD=12 tRAS=28 tRP=12 tRC=40
n_cmd=18330532 n_nop=18317922 n_act=546 n_pre=530 n_req=5768 n_rd=7206 n_write=4328 bw_util=0.001258
n_activity=100913 dram_eff=0.2286
bk0: 464a 18327432i bk1: 448a 18327408i bk2: 448a 18327533i bk3: 444a 18327734i bk4: 384a 18327334i bk5: 384a 18327376i bk6: 384a 18327468i bk7: 436a 18327574i bk8: 448a 18326846i bk9: 476a 18326709i bk10: 512a 18326798i bk11: 512a 18327794i bk12: 510a 18326118i bk13: 460a 18325932i bk14: 448a 18325531i bk15: 448a 18313254i 
dram_util_bins: 0 0 0 0 0 0 0 0 0 0
dram_eff_bins: 0 0 0 0 0 0 0 0 0 0
mrqq: max=7 avg=0.0027518
Cache L2_bank_000:	Size = 131072 B (64 Set x 16-way x 128 byte line)
		Access = 166916, Miss = 3607 (0.0216), PendingHit = 421 (0.00252)
Cache L2_bank_001:	Size = 131072 B (64 Set x 16-way x 128 byte line)
		Access = 166839, Miss = 3604 (0.0216), PendingHit = 413 (0.00248)
Cache L2_bank_002:	Size = 131072 B (64 Set x 16-way x 128 byte line)
		Access = 167003, Miss = 3604 (0.0216), PendingHit = 435 (0.0026)
Cache L2_bank_003:	Size = 131072 B (64 Set x 16-way x 128 byte line)
		Access = 166994, Miss = 3605 (0.0216), PendingHit = 433 (0.00259)
Cache L2_bank_004:	Size = 131072 B (64 Set x 16-way x 128 byte line)
		Access = 166914, Miss = 3604 (0.0216), PendingHit = 408 (0.00244)
L2 Cache Total Miss Rate = 0.022

icnt_total_pkts_mem_to_simt=4128218
icnt_total_pkts_simt_to_mem=877930

LD_mem_lat_dist  0 0 0 0 0 0 0 0 0 0 0 0 0 0 0 0 0 0 0 0 0 0 0 0 0 0 0
ST_mem_lat_dist  0 0 0 0 0 0 0 0 0 0 0 0 0 0 0 0 0 0 0 0 0 0 0 0 0 0 0
Traffic 0 Stat
%=================================
% Average latency = 1.10491
% Accepted packets = 0 at node 0 (avg = 0.00104118)
lat(1) = 1.10491;
thru(1,:) = [ 0 0 0 0 0 0 0 0 0 0 0 0 0 0 0.00478906 0.00478674 0.00479121 0.00479119 0.004789 0 0 0 0 ];
% latency change    = 1
% throughput change = 1
Traffic 1 Stat
%=================================
% Average latency = 6.83085
% Accepted packets = 0 at node 14 (avg = 0.00489587)
lat(2) = 6.83085;
thru(2,:) = [ 0.00828017 0.00826392 0.00796594 0.00826484 0.00749741 0.0079639 0.00817148 0.00793875 0.00738661 0.00813222 0.00817164 0.00815255 0.00802582 0.00838972 0 0 0 0 0 0 0 0 0 ];
% latency change    = 0.838248
% throughput change = 0.787334
----------------------------Interconnect-DETAILS---------------------------------=======Traffic[0]class0 ======
Traffic[0]class0Overall average latency = 1.10491 (1 samples)
Traffic[0]class0Overall average accepted rate = 0.00104118 (1 samples)
Traffic[0]class0Overall min accepted rate = 0 (1 samples)
traffic_manager/latency_stat_0_freq = [ 0 818154 4817 227 162 7401 1187 417 1520 396 126 13 5 14 1 6 0 13 0 1 0 4 0 1 0 3 0 2 0 3 0 5 0 5 0 2 0 2 0 2 0 0 0 1 0 2 0 0 0 0 0 0 0 0 0 4 0 1 0 3 1 3 0 5 0 0 0 3 0 2 1 3 0 2 0 0 2 2 1 3 0 0 0 0 0 1 0 1 0 1 0 3 1 4 0 1 1 1 0 2 0 4 0 0 0 0 0 1 2 3 0 3 0 2 1 4 0 1 0 5 0 5 0 0 0 3 0 0 0 0 0 0 0 0 0 3 0 0 0 0 0 0 0 0 0 0 0 0 0 0 0 1 0 1 0 0 0 1 0 0 0 1 1 1 0 2 2 2 0 0 0 2 0 4 0 1 0 5 1 1 0 1 0 2 0 4 1 5 0 2 0 1 0 4 0 1 0 1 0 1 0 0 0 1 0 1 0 1 0 0 0 0 0 0 0 0 0 0 0 1 0 0 0 0 0 1 0 1 0 2 0 1 0 1 0 0 0 2 0 0 0 1 0 0 0 1 0 0 0 0 0 0 1 1 0 0 0 0 0 1 0 1 0 0 0 0 0 0 0 0 0 2 0 0 0 1 0 0 0 1 0 0 0 0 0 0 0 0 0 0 0 0 0 0 0 1 0 0 0 0 0 0 0 0 0 0 0 0 0 0 0 0 0 0 0 0 0 0 0 0 0 0 0 0 0 1 0 0 0 0 0 0 0 0 0 1 0 0 0 0 0 1 0 0 0 1 0 0 0 0 0 0 0 0 0 0 0 2 0 0 0 0 0 0 0 0 0 0 0 0 0 0 0 0 0 0 0 0 0 0 0 0 0 0 0 0 0 0 0 0 0 0 0 0 0 0 0 0 0 4 0 1 0 1 0 0 0 1 0 0 0 0 0 0 0 0 0 0 0 0 0 0 0 0 0 0 0 0 0 0 0 0 0 0 0 0 0 0 0 0 0 0 0 0 0 0 0 0 0 0 0 0 0 0 0 0 0 0 0 0 0 0 0 0 0 0 0 0 0 0 0 0 0 0 0 0 0 0 0 0 0 0 0 0 0 0 0 0 0 0 0 0 0 0 0 0 0 0 0 0 0 0 0 0 0 0 0 0 0 0 0 0 0 0 0 0 0 0 0 0 0 0 0 0 0 0 0 0 0 0 0 0 0 0 0 0 0 0 0 0 0 0 0 0 0 0 0 0 0 0 0 0 0 0 0 0 0 0 0 0 0 0 0 0 0 0 0 0 0 0 0 0 0 0 0 0 0 0 0 0 0 0 0 0 0 0 0 0 0 0 0 0 0 0 0 0 0 0 0 0 0 0 0 0 0 0 0 0 0 0 0 0 0 0 0 0 0 0 0 0 0 0 0 0 0 0 0 0 0 0 0 0 0 0 0 0 0 0 0 0 0 0 0 0 0 0 0 0 0 0 0 0 0 0 0 0 0 0 0 0 0 0 0 0 0 0 0 0 0 0 0 0 0 0 0 0 0 0 0 0 0 0 0 0 0 0 0 0 0 0 0 0 0 0 0 0 0 0 0 0 0 0 0 0 0 0 0 0 0 0 0 0 0 0 0 0 0 0 0 0 0 0 0 0 0 0 0 0 0 0 0 0 0 0 0 0 0 0 0 0 0 0 0 0 0 0 0 0 0 0 0 0 0 0 0 0 0 0 0 0 0 0 0 0 0 0 0 0 0 0 0 0 0 0 0 0 0 0 0 0 0 0 0 0 0 0 0 0 0 0 0 0 0 0 0 0 0 0 0 0 0 0 0 0 0 0 0 0 0 0 0 0 0 0 0 0 0 0 0 0 0 0 0 0 0 0 0 0 0 0 0 0 0 0 0 0 0 0 0 0 0 0 0 0 0 0 0 0 0 0 0 0 0 0 0 0 0 0 0 0 0 0 0 0 0 0 0 0 0 0 0 0 0 0 0 0 0 0 0 0 0 0 0 0 0 0 0 0 0 0 0 0 0 0 0 0 0 0 0 0 0 0 0 0 0 0 0 0 0 0 0 0 0 0 0 0 0 0 0 0 0 0 0 0 0 0 0 0 0 0 0 0 0 0 0 0 0 0 0 0 0 0 0 0 0 0 0 0 0 0 0 0 0 0 0 0 0 0 0 0 0 0 0 0 0 0 0 0 0 0 0 0 0 0 0 0 0 0 0 0 0 0 0 0 0 0 0 0 0 0 0 0 0 0 0 0 0 0 0 0 ];
Traffic[0]class1Average hops = 1 (834666 samples)
traffic_manager/hop_stats_freq = [ 0 834666 0 0 0 0 0 0 0 0 0 0 0 0 0 0 0 0 0 0 ];
=======Traffic[1]class0 ======
Traffic[1]class0Overall average latency = 6.83085 (1 samples)
Traffic[1]class0Overall average accepted rate = 0.00489587 (1 samples)
Traffic[1]class0Overall min accepted rate = 0 (1 samples)
traffic_manager/latency_stat_0_freq = [ 0 10482 63 472 126 389600 8298 11172 337569 20083 6896 6444 15953 7156 13789 750 2988 599 652 467 299 276 229 59 92 42 54 20 9 10 3 7 4 0 0 1 2 0 0 0 0 0 0 0 0 0 0 0 0 0 0 0 0 0 0 0 0 0 0 0 0 0 0 0 0 0 0 0 0 0 0 0 0 0 0 0 0 0 0 0 0 0 0 0 0 0 0 0 0 0 0 0 0 0 0 0 0 0 0 0 0 0 0 0 0 0 0 0 0 0 0 0 0 0 0 0 0 0 0 0 0 0 0 0 0 0 0 0 0 0 0 0 0 0 0 0 0 0 0 0 0 0 0 0 0 0 0 0 0 0 0 0 0 0 0 0 0 0 0 0 0 0 0 0 0 0 0 0 0 0 0 0 0 0 0 0 0 0 0 0 0 0 0 0 0 0 0 0 0 0 0 0 0 0 0 0 0 0 0 0 0 0 0 0 0 0 0 0 0 0 0 0 0 0 0 0 0 0 0 0 0 0 0 0 0 0 0 0 0 0 0 0 0 0 0 0 0 0 0 0 0 0 0 0 0 0 0 0 0 0 0 0 0 0 0 0 0 0 0 0 0 0 0 0 0 0 0 0 0 0 0 0 0 0 0 0 0 0 0 0 0 0 0 0 0 0 0 0 0 0 0 0 0 0 0 0 0 0 0 0 0 0 0 0 0 0 0 0 0 0 0 0 0 0 0 0 0 0 0 0 0 0 0 0 0 0 0 0 0 0 0 0 0 0 0 0 0 0 0 0 0 0 0 0 0 0 0 0 0 0 0 0 0 0 0 0 0 0 0 0 0 0 0 0 0 0 0 0 0 0 0 0 0 0 0 0 0 0 0 0 0 0 0 0 0 0 0 0 0 0 0 0 0 0 0 0 0 0 0 0 0 0 0 0 0 0 0 0 0 0 0 0 0 0 0 0 0 0 0 0 0 0 0 0 0 0 0 0 0 0 0 0 0 0 0 0 0 0 0 0 0 0 0 0 0 0 0 0 0 0 0 0 0 0 0 0 0 0 0 0 0 0 0 0 0 0 0 0 0 0 0 0 0 0 0 0 0 0 0 0 0 0 0 0 0 0 0 0 0 0 0 0 0 0 0 0 0 0 0 0 0 0 0 0 0 0 0 0 0 0 0 0 0 0 0 0 0 0 0 0 0 0 0 0 0 0 0 0 0 0 0 0 0 0 0 0 0 0 0 0 0 0 0 0 0 0 0 0 0 0 0 0 0 0 0 0 0 0 0 0 0 0 0 0 0 0 0 0 0 0 0 0 0 0 0 0 0 0 0 0 0 0 0 0 0 0 0 0 0 0 0 0 0 0 0 0 0 0 0 0 0 0 0 0 0 0 0 0 0 0 0 0 0 0 0 0 0 0 0 0 0 0 0 0 0 0 0 0 0 0 0 0 0 0 0 0 0 0 0 0 0 0 0 0 0 0 0 0 0 0 0 0 0 0 0 0 0 0 0 0 0 0 0 0 0 0 0 0 0 0 0 0 0 0 0 0 0 0 0 0 0 0 0 0 0 0 0 0 0 0 0 0 0 0 0 0 0 0 0 0 0 0 0 0 0 0 0 0 0 0 0 0 0 0 0 0 0 0 0 0 0 0 0 0 0 0 0 0 0 0 0 0 0 0 0 0 0 0 0 0 0 0 0 0 0 0 0 0 0 0 0 0 0 0 0 0 0 0 0 0 0 0 0 0 0 0 0 0 0 0 0 0 0 0 0 0 0 0 0 0 0 0 0 0 0 0 0 0 0 0 0 0 0 0 0 0 0 0 0 0 0 0 0 0 0 0 0 0 0 0 0 0 0 0 0 0 0 0 0 0 0 0 0 0 0 0 0 0 0 0 0 0 0 0 0 0 0 0 0 0 0 0 0 0 0 0 0 0 0 0 0 0 0 0 0 0 0 0 0 0 0 0 0 0 0 0 0 0 0 0 0 0 0 0 0 0 0 0 0 0 0 0 0 0 0 0 0 0 0 0 0 0 0 0 0 0 0 0 0 0 0 0 0 0 0 0 0 0 0 0 0 0 0 0 0 0 0 0 0 0 0 0 0 0 0 0 0 0 0 0 0 0 0 0 0 0 0 0 0 0 0 0 0 0 0 0 0 0 0 0 0 0 0 0 0 0 0 0 0 0 0 0 0 0 0 0 0 0 0 0 0 0 0 0 0 0 0 0 0 0 0 0 0 0 0 0 0 0 0 0 0 0 0 0 0 0 0 0 0 0 ];
Traffic[1]class1Average hops = 1 (834666 samples)
traffic_manager/hop_stats_freq = [ 0 834666 0 0 0 0 0 0 0 0 0 0 0 0 0 0 0 0 0 0 ];
----------------------------END-of-Interconnect-DETAILS-------------------------

gpgpu_simulation_time = 0 days, 8 hrs, 47 min, 4 sec (31624 sec)
gpgpu_simulation_rate = 383042 (inst/sec)
gpgpu_simulation_rate = 579 (cycle/sec)
  computing plane 1
kernel '_Z29cuda_cutoff_potential_latticeiiP6float4fffPfi' transfer to GPU hardware scheduler
kernel_name = _Z29cuda_cutoff_potential_latticeiiP6float4fffPfi 
kernel_launch_uid = 2 
gpu_sim_cycle = 22340986
gpu_sim_insn = 14760151048
gpu_ipc =     660.6759
gpu_tot_sim_cycle = 40671518
gpu_tot_sim_insn = 26873499904
gpu_tot_ipc =     660.7449
gpu_tot_issued_cta = 0
gpu_stall_dramfull = 31205
gpu_stall_icnt2sh    = 88197
gpu_total_sim_rate=444491
Cache L1D_000:	Size = 16384 B (32 Set x 4-way x 128 byte line)
		Access = 258620, Miss = 122369 (0.473), PendingHit = 866 (0.00335)
Cache L1D_001:	Size = 16384 B (32 Set x 4-way x 128 byte line)
		Access = 259290, Miss = 118729 (0.458), PendingHit = 1373 (0.0053)
Cache L1D_002:	Size = 16384 B (32 Set x 4-way x 128 byte line)
		Access = 258620, Miss = 114320 (0.442), PendingHit = 2374 (0.00918)
Cache L1D_003:	Size = 16384 B (32 Set x 4-way x 128 byte line)
		Access = 259960, Miss = 117447 (0.452), PendingHit = 3257 (0.0125)
Cache L1D_004:	Size = 16384 B (32 Set x 4-way x 128 byte line)
		Access = 259960, Miss = 112935 (0.434), PendingHit = 3300 (0.0127)
Cache L1D_005:	Size = 16384 B (32 Set x 4-way x 128 byte line)
		Access = 257950, Miss = 115020 (0.446), PendingHit = 1484 (0.00575)
Cache L1D_006:	Size = 16384 B (32 Set x 4-way x 128 byte line)
		Access = 259290, Miss = 120161 (0.463), PendingHit = 1514 (0.00584)
Cache L1D_007:	Size = 16384 B (32 Set x 4-way x 128 byte line)
		Access = 259290, Miss = 112708 (0.435), PendingHit = 1914 (0.00738)
Cache L1D_008:	Size = 16384 B (32 Set x 4-way x 128 byte line)
		Access = 257950, Miss = 111789 (0.433), PendingHit = 2438 (0.00945)
Cache L1D_009:	Size = 16384 B (32 Set x 4-way x 128 byte line)
		Access = 257950, Miss = 119498 (0.463), PendingHit = 418 (0.00162)
Cache L1D_010:	Size = 16384 B (32 Set x 4-way x 128 byte line)
		Access = 258620, Miss = 122164 (0.472), PendingHit = 235 (0.000909)
Cache L1D_011:	Size = 16384 B (32 Set x 4-way x 128 byte line)
		Access = 258620, Miss = 117641 (0.455), PendingHit = 511 (0.00198)
Cache L1D_012:	Size = 16384 B (32 Set x 4-way x 128 byte line)
		Access = 258620, Miss = 117667 (0.455), PendingHit = 1574 (0.00609)
Cache L1D_013:	Size = 16384 B (32 Set x 4-way x 128 byte line)
		Access = 258620, Miss = 117722 (0.455), PendingHit = 1306 (0.00505)
total_dl1_misses=1640170
total_dl1_accesses=3623360
total_dl1_miss_rate= 0.452665
Shader 0 dynamic_warp_id issue ditsribution:
dynamic_warp_id:
0, 1, 2, 3, 4, 5, 6, 7, 8, 9, 10, 11, 12, 13, 14, 15, 16, 17, 18, 19, 20, 21, 22, 23, 24, 25, 26, 27, 28, 29, 30, 31, 32, 33, 34, 35, 36, 37, 38, 39, 40, 41, 42, 43, 44, 45, 46, 47, 48, 49, 50, 51, 52, 53, 54, 55, 56, 57, 58, 59, 60, 61, 62, 63, 64, 65, 66, 67, 68, 69, 70, 71, 72, 73, 74, 75, 76, 77, 78, 79, 80, 81, 82, 83, 84, 85, 86, 87, 88, 89, 90, 91, 92, 93, 94, 95, 96, 97, 98, 99, 100, 101, 102, 103, 104, 105, 106, 107, 108, 109, 110, 111, 112, 113, 114, 115, 116, 117, 118, 119, 120, 121, 122, 123, 124, 125, 126, 127, 128, 129, 130, 131, 132, 133, 134, 135, 136, 137, 138, 139, 140, 141, 142, 143, 144, 145, 146, 147, 148, 149, 150, 151, 152, 153, 154, 155, 156, 157, 158, 159, 160, 161, 162, 163, 164, 165, 166, 167, 168, 169, 170, 171, 172, 173, 174, 175, 176, 177, 178, 179, 180, 181, 182, 183, 184, 185, 186, 187, 188, 189, 190, 191, 192, 193, 194, 195, 196, 197, 198, 199, 200, 201, 202, 203, 204, 205, 206, 207, 208, 209, 210, 211, 212, 213, 214, 215, 216, 217, 218, 219, 220, 221, 222, 223, 224, 225, 226, 227, 228, 229, 230, 231, 232, 233, 234, 235, 236, 237, 238, 239, 240, 241, 242, 243, 244, 245, 246, 247, 248, 249, 250, 251, 252, 253, 254, 255, 256, 257, 258, 259, 260, 261, 262, 263, 264, 265, 266, 267, 268, 269, 270, 271, 272, 273, 274, 275, 276, 277, 278, 279, 280, 281, 282, 283, 284, 285, 286, 287, 288, 289, 290, 291, 292, 293, 294, 295, 296, 297, 298, 299, 300, 301, 302, 303, 304, 305, 306, 307, 308, 309, 310, 311, 312, 313, 314, 315, 316, 317, 318, 319, 320, 321, 322, 323, 324, 325, 326, 327, 328, 329, 330, 331, 332, 333, 334, 335, 336, 337, 338, 339, 340, 341, 342, 343, 344, 345, 346, 347, 348, 349, 350, 351, 352, 353, 354, 355, 356, 357, 358, 359, 360, 361, 362, 363, 364, 365, 366, 367, 368, 369, 370, 371, 372, 373, 374, 375, 376, 377, 378, 379, 380, 381, 382, 383, 384, 385, 386, 387, 388, 389, 390, 391, 392, 393, 394, 395, 396, 397, 398, 399, 400, 401, 402, 403, 404, 405, 406, 407, 408, 409, 410, 411, 412, 413, 414, 415, 416, 417, 418, 419, 420, 421, 422, 423, 424, 425, 426, 427, 428, 429, 430, 431, 432, 433, 434, 435, 436, 437, 438, 439, 440, 441, 442, 443, 444, 445, 446, 447, 448, 449, 450, 451, 452, 453, 454, 455, 456, 457, 458, 459, 460, 461, 462, 463, 464, 465, 466, 467, 468, 469, 470, 471, 472, 473, 474, 475, 476, 477, 478, 479, 480, 481, 482, 483, 484, 485, 486, 487, 488, 489, 490, 491, 492, 493, 494, 495, 496, 497, 498, 499, 500, 501, 502, 503, 504, 505, 506, 507, 508, 509, 510, 511, 512, 513, 514, 515, 516, 517, 518, 519, 520, 521, 522, 523, 524, 525, 526, 527, 528, 529, 530, 531, 532, 533, 534, 535, 536, 537, 538, 539, 540, 541, 542, 543, 544, 545, 546, 547, 548, 549, 550, 551, 552, 553, 554, 555, 556, 557, 558, 559, 560, 561, 562, 563, 564, 565, 566, 567, 568, 569, 570, 571, 572, 573, 574, 575, 576, 577, 578, 579, 580, 581, 582, 583, 584, 585, 586, 587, 588, 589, 590, 591, 592, 593, 594, 595, 596, 597, 598, 599, 600, 601, 602, 603, 604, 605, 606, 607, 608, 609, 610, 611, 612, 613, 614, 615, 616, 617, 618, 619, 620, 621, 622, 623, 624, 625, 626, 627, 628, 629, 630, 631, 632, 633, 634, 635, 636, 637, 638, 639, 640, 641, 642, 643, 644, 645, 646, 647, 648, 649, 650, 651, 652, 653, 654, 655, 656, 657, 658, 659, 660, 661, 662, 663, 664, 665, 666, 667, 668, 669, 670, 671, 672, 673, 674, 675, 676, 677, 678, 679, 680, 681, 682, 683, 684, 685, 686, 687, 688, 689, 690, 691, 692, 693, 694, 695, 696, 697, 698, 699, 700, 701, 702, 703, 704, 705, 706, 707, 708, 709, 710, 711, 712, 713, 714, 715, 716, 717, 718, 719, 720, 721, 722, 723, 724, 725, 726, 727, 728, 729, 730, 731, 732, 733, 734, 735, 736, 737, 738, 739, 740, 741, 742, 743, 744, 745, 746, 747, 748, 749, 750, 751, 752, 753, 754, 755, 756, 757, 758, 759, 760, 761, 762, 763, 764, 765, 766, 767, 768, 769, 770, 771, 772, 773, 774, 775, 776, 777, 778, 779, 780, 781, 782, 783, 784, 785, 786, 787, 788, 789, 790, 791, 792, 793, 794, 795, 796, 797, 798, 799, 800, 801, 802, 803, 804, 805, 806, 807, 808, 809, 810, 811, 812, 813, 814, 815, 816, 817, 818, 819, 820, 821, 822, 823, 824, 825, 826, 827, 828, 829, 830, 831, 832, 833, 834, 835, 836, 837, 838, 839, 840, 841, 842, 843, 844, 845, 846, 847, 848, 849, 850, 851, 852, 853, 854, 855, 856, 857, 858, 859, 860, 861, 862, 863, 864, 865, 866, 867, 868, 869, 870, 871, 872, 873, 874, 875, 876, 877, 878, 879, 880, 881, 882, 883, 884, 885, 886, 887, 888, 889, 890, 891, 892, 893, 894, 895, 896, 897, 898, 899, 900, 901, 902, 903, 904, 905, 906, 907, 908, 909, 910, 911, 912, 913, 914, 915, 916, 917, 918, 919, 920, 921, 922, 923, 924, 925, 926, 927, 928, 929, 930, 931, 932, 933, 934, 935, 936, 937, 938, 939, 940, 941, 942, 943, 944, 945, 946, 947, 948, 949, 950, 951, 952, 953, 954, 955, 956, 957, 958, 959, 960, 961, 962, 963, 964, 965, 966, 967, 968, 969, 970, 971, 972, 973, 974, 975, 976, 977, 978, 979, 980, 981, 982, 983, 984, 985, 986, 987, 988, 989, 990, 991, 992, 993, 994, 995, 996, 997, 998, 999, 1000, 1001, 1002, 1003, 1004, 1005, 1006, 1007, 1008, 1009, 1010, 1011, 1012, 1013, 1014, 1015, 1016, 1017, 1018, 1019, 1020, 1021, 1022, 1023, 1024, 1025, 1026, 1027, 1028, 1029, 1030, 1031, 1032, 1033, 1034, 1035, 1036, 1037, 1038, 1039, 1040, 1041, 1042, 1043, 1044, 1045, 1046, 1047, 1048, 1049, 1050, 1051, 1052, 1053, 1054, 1055, 1056, 1057, 1058, 1059, 1060, 1061, 1062, 1063, 1064, 1065, 1066, 1067, 1068, 1069, 1070, 1071, 1072, 1073, 1074, 1075, 1076, 1077, 1078, 1079, 1080, 1081, 1082, 1083, 1084, 1085, 1086, 1087, 1088, 1089, 1090, 1091, 1092, 1093, 1094, 1095, 1096, 1097, 1098, 1099, 1100, 1101, 1102, 1103, 1104, 1105, 1106, 1107, 1108, 1109, 1110, 1111, 1112, 1113, 1114, 1115, 1116, 1117, 1118, 1119, 1120, 1121, 1122, 1123, 1124, 1125, 1126, 1127, 1128, 1129, 1130, 1131, 1132, 1133, 1134, 1135, 1136, 1137, 1138, 1139, 1140, 1141, 1142, 1143, 1144, 1145, 1146, 1147, 1148, 1149, 1150, 1151, 1152, 1153, 1154, 1155, 1156, 1157, 1158, 1159, 1160, 1161, 1162, 1163, 1164, 1165, 1166, 1167, 1168, 1169, 1170, 1171, 1172, 1173, 1174, 1175, 1176, 1177, 1178, 1179, 1180, 1181, 1182, 1183, 1184, 1185, 1186, 1187, 1188, 1189, 1190, 1191, 1192, 1193, 1194, 1195, 1196, 1197, 1198, 1199, 1200, 1201, 1202, 1203, 1204, 1205, 1206, 1207, 1208, 1209, 1210, 1211, 1212, 1213, 1214, 1215, 1216, 1217, 1218, 1219, 1220, 1221, 1222, 1223, 1224, 1225, 1226, 1227, 1228, 1229, 1230, 1231, 1232, 1233, 1234, 1235, 1236, 1237, 1238, 1239, 1240, 1241, 1242, 1243, 1244, 1245, 1246, 1247, 1248, 1249, 1250, 1251, 1252, 1253, 1254, 1255, 1256, 1257, 1258, 1259, 1260, 1261, 1262, 1263, 1264, 1265, 1266, 1267, 1268, 1269, 1270, 1271, 1272, 1273, 1274, 1275, 1276, 1277, 1278, 1279, 1280, 1281, 1282, 1283, 1284, 1285, 1286, 1287, 1288, 1289, 1290, 1291, 1292, 1293, 1294, 1295, 1296, 1297, 1298, 1299, 1300, 1301, 1302, 1303, 1304, 1305, 1306, 1307, 1308, 1309, 1310, 1311, 1312, 1313, 1314, 1315, 1316, 1317, 1318, 1319, 1320, 1321, 1322, 1323, 1324, 1325, 1326, 1327, 1328, 1329, 1330, 1331, 1332, 1333, 1334, 1335, 1336, 1337, 1338, 1339, 1340, 1341, 1342, 1343, 1344, 1345, 1346, 1347, 1348, 1349, 1350, 1351, 1352, 1353, 1354, 1355, 1356, 1357, 1358, 1359, 1360, 1361, 1362, 1363, 1364, 1365, 1366, 1367, 1368, 1369, 1370, 1371, 1372, 1373, 1374, 1375, 1376, 1377, 1378, 1379, 1380, 1381, 1382, 1383, 1384, 1385, 1386, 1387, 1388, 1389, 1390, 1391, 1392, 1393, 1394, 1395, 1396, 1397, 1398, 1399, 1400, 1401, 1402, 1403, 1404, 1405, 1406, 1407, 1408, 1409, 1410, 1411, 1412, 1413, 1414, 1415, 1416, 1417, 1418, 1419, 1420, 1421, 1422, 1423, 1424, 1425, 1426, 1427, 1428, 1429, 1430, 1431, 1432, 1433, 1434, 1435, 1436, 1437, 1438, 1439, 1440, 1441, 1442, 1443, 1444, 1445, 1446, 1447, 1448, 1449, 1450, 1451, 1452, 1453, 1454, 1455, 1456, 1457, 1458, 1459, 1460, 1461, 1462, 1463, 1464, 1465, 1466, 1467, 1468, 1469, 1470, 1471, 1472, 1473, 1474, 1475, 1476, 1477, 1478, 1479, 1480, 1481, 1482, 1483, 1484, 1485, 1486, 1487, 1488, 1489, 1490, 1491, 1492, 1493, 1494, 1495, 1496, 1497, 1498, 1499, 1500, 1501, 1502, 1503, 1504, 1505, 1506, 1507, 1508, 1509, 1510, 1511, 1512, 1513, 1514, 1515, 1516, 1517, 1518, 1519, 1520, 1521, 1522, 1523, 1524, 1525, 1526, 1527, 1528, 1529, 1530, 1531, 1532, 1533, 1534, 1535, 1536, 1537, 1538, 1539, 1540, 1541, 1542, 1543, 
distro:
26494, 27007, 26647, 27232, 27377, 27926, 27521, 28133, 26045, 26432, 26108, 26594, 26634, 27048, 26733, 27219, 26951, 27428, 27104, 27581, 27349, 27997, 27475, 28069, 15557, 15854, 15602, 15917, 24832, 25057, 24922, 25201, 31901, 32243, 32072, 32423, 31777, 32146, 32011, 32317, 31679, 32093, 31868, 32336, 32532, 32982, 32694, 33090, 31520, 31970, 31709, 32141, 28921, 29281, 29101, 29470, 23404, 23584, 23530, 23719, 23962, 24043, 24133, 24187, 36688, 36994, 36958, 37255, 37298, 37595, 37442, 37955, 36800, 37106, 37079, 37403, 37682, 37997, 37844, 38231, 36031, 36265, 36274, 36499, 36922, 37282, 37174, 37471, 36667, 36676, 36919, 36955, 42257, 42239, 42464, 42437, 41620, 41566, 41818, 41872, 43410, 43482, 43671, 43707, 41531, 41540, 41756, 41720, 42494, 42422, 42773, 42764, 33107, 33089, 33251, 33341, 26336, 26291, 26462, 26426, 31820, 31757, 32000, 31964, 44404, 44395, 44674, 44647, 42709, 42772, 42907, 42970, 43569, 43659, 43857, 43857, 42260, 42404, 42512, 42656, 41698, 41707, 41932, 41959, 37622, 37559, 37910, 37829, 42782, 42863, 43106, 43133, 42524, 42578, 42740, 42776, 43466, 43574, 43727, 43817, 44520, 44709, 44799, 44880, 42814, 42859, 43084, 43147, 43066, 43165, 43282, 43453, 22389, 22362, 22506, 22497, 22821, 22785, 22884, 22875, 32836, 32728, 32980, 32863, 44063, 44153, 44324, 44378, 43877, 43850, 44093, 44138, 43542, 43569, 43821, 43839, 42916, 42934, 43276, 43213, 43942, 43861, 44023, 44050, 39497, 39506, 39749, 39740, 32368, 32413, 32593, 32602, 38171, 38297, 38342, 38414, 44466, 44457, 44736, 44691, 42993, 42921, 43299, 43155, 43641, 43434, 43830, 43749, 43504, 43549, 43702, 43747, 38454, 38553, 38643, 38796, 34277, 34277, 34394, 34421, 44059, 43978, 44356, 44257, 44142, 44286, 44385, 44529, 42985, 42904, 43255, 43219, 43684, 43693, 43972, 43900, 43419, 43302, 43617, 43563, 42929, 43010, 43226, 43271, 26476, 26404, 26575, 26548, 43009, 42955, 43243, 43117, 43240, 43195, 43654, 43483, 43592, 43610, 43826, 43835, 42872, 42800, 43187, 43106, 42780, 42726, 43050, 43032, 42570, 42480, 42813, 42759, 28241, 28250, 28403, 28403, 22709, 22727, 22799, 22835, 43558, 43540, 43864, 43828, 43920, 43830, 44154, 44037, 44129, 44174, 44516, 44462, 43911, 43893, 44145, 44136, 42189, 42207, 42414, 42450, 42448, 42484, 42718, 42727, 27258, 27294, 27384, 27465, 32087, 31997, 32303, 32222, 42788, 42824, 43058, 43022, 42550, 42532, 42721, 42838, 43531, 43576, 43819, 43783, 42776, 42830, 43046, 43046, 43360, 43306, 43621, 43621, 38870, 38789, 39059, 39041, 28958, 28985, 29066, 29093, 44335, 44362, 44632, 44668, 43510, 43492, 43834, 43807, 42645, 42609, 42897, 42915, 43296, 43341, 43521, 43620, 42025, 42187, 42322, 42376, 44143, 44170, 44413, 44377, 32752, 32743, 32986, 32959, 33481, 33454, 33661, 33571, 43920, 44019, 44154, 44271, 43403, 43286, 43628, 43529, 41819, 41729, 42035, 41963, 42648, 42639, 42936, 42972, 39056, 39155, 39353, 39398, 39596, 39605, 39785, 39803, 27826, 27880, 28006, 28024, 43802, 43721, 44108, 44054, 42196, 42169, 42439, 42484, 41674, 41665, 41872, 41818, 43168, 43204, 43384, 43429, 43133, 43007, 43421, 43241, 43138, 42913, 43399, 43255, 39204, 39222, 39312, 39483, 44068, 44059, 44248, 44275, 44626, 44707, 44869, 44923, 41348, 41447, 41681, 41672, 43175, 43004, 43346, 43256, 43863, 43845, 44115, 44052, 34392, 34446, 34500, 34626, 23078, 23096, 23177, 23204, 32572, 32518, 32806, 32833, 44309, 44309, 44543, 44588, 42258, 42105, 42438, 42420, 42692, 42683, 42935, 42899, 42703, 42712, 42937, 43018, 42880, 42880, 43087, 43123, 38175, 38175, 38337, 38373, 37406, 37343, 37613, 37604, 41873, 41873, 42152, 42125, 43592, 43475, 43844, 43736, 42291, 42390, 42552, 42579, 41968, 42040, 42211, 42283, 42698, 42716, 42995, 42896, 32706, 32724, 32949, 32850, 28003, 27967, 28138, 28111, 32055, 32046, 32244, 32226, 42142, 42124, 42466, 42403, 42486, 42459, 42729, 42711, 43609, 43645, 43852, 43879, 42521, 42665, 42701, 42863, 43006, 43051, 43267, 43321, 38738, 38738, 38963, 39008, 37417, 37345, 37570, 37561, 41724, 41724, 41976, 41985, 42339, 42276, 42627, 42582, 43995, 44130, 44238, 44391, 43384, 43465, 43663, 43690, 43448, 43322, 43655, 43556, 33778, 33751, 34030, 33922, 28647, 28557, 28773, 28701, 37985, 37922, 38120, 38102, 44075, 44093, 44300, 44363, 42116, 42323, 42431, 42476, 42858, 42858, 43038, 43128, 42229, 42175, 42427, 42355, 43579, 43651, 43840, 43876, 33458, 33431, 33674, 33629, 42639, 42747, 42936, 42990, 43413, 43485, 43611, 43710, 43832, 43850, 44102, 44093, 44549, 44693, 44756, 44945, 43890, 43944, 44115, 44250, 43883, 43865, 44189, 44063, 23144, 23189, 23225, 23261, 29076, 28923, 29265, 29049, 37909, 37792, 38143, 37972, 38310, 38247, 38598, 38445, 40099, 39937, 40297, 40117, 39350, 39188, 39593, 39413, 38839, 38722, 39073, 38956, 34347, 34212, 34626, 34356, 20719, 20692, 20827, 20773, 29244, 28947, 29370, 29091, 33795, 33498, 34074, 33651, 34023, 33744, 34149, 33870, 35475, 35187, 35772, 35403, 35358, 34863, 35529, 35052, 35248, 34870, 35437, 34987, 26569, 26272, 26659, 26425, 22546, 22195, 22699, 22321, 25804, 25381, 25984, 25480, 28668, 28272, 28866, 28407, 30120, 29562, 30291, 29724, 28934, 28493, 29132, 28610, 28873, 28351, 29062, 28504, 26515, 26191, 26668, 26290, 23062, 22720, 23188, 22801, 21174, 20832, 21300, 20940, 23239, 22789, 23329, 22852, 23793, 23181, 23865, 23244, 24467, 23819, 24611, 23927, 23834, 23330, 23969, 23456, 23216, 22775, 23288, 22847, 19276, 18871, 19375, 18970, 31312, 31888, 31384, 32032, 32131, 32869, 32239, 32995, 30882, 31512, 30972, 31629, 31507, 32236, 31552, 32353, 31553, 32156, 31625, 32264, 32330, 33113, 32375, 33158, 21435, 21894, 21525, 21984, 21606, 22074, 21669, 22092, 38912, 39569, 39119, 39749, 38957, 39434, 39119, 39587, 39263, 39884, 39371, 40019, 39557, 40205, 39746, 40403, 39503, 40160, 39656, 40286, 39565, 40258, 39682, 40330, 28117, 28342, 28225, 28477, 45328, 45868, 45625, 46084, 45864, 46287, 46035, 46530, 45923, 46472, 46040, 46580, 45721, 46072, 45919, 46306, 45720, 46179, 45873, 46368, 44815, 45184, 44941, 45337, 23817, 23979, 23826, 24051, 37674, 37656, 37782, 37836, 52391, 52427, 52562, 52670, 51641, 51731, 51911, 51965, 52504, 52666, 52810, 52945, 51885, 51912, 52029, 52164, 51417, 51462, 51588, 51642, 45489, 45489, 45723, 45777, 32698, 32689, 32779, 32770, 38844, 38952, 39006, 39078, 54198, 54144, 54450, 54396, 53444, 53318, 53669, 53561, 53097, 53196, 53412, 53403, 52488, 52497, 52776, 52704, 53572, 53446, 53770, 53716, 46687, 46732, 46957, 46984, 46341, 46260, 46548, 46440, 53718, 53718, 53961, 53916, 54483, 54600, 54609, 54888, 54537, 54465, 54735, 54636, 54230, 54311, 54410, 54392, 54257, 54428, 54473, 54536, 41113, 40924, 41230, 41113, 39143, 39071, 39242, 39242, 46859, 46814, 46985, 47003, 52999, 53026, 53242, 53233, 54796, 54913, 54976, 55039, 53910, 53964, 54171, 54144, 52754, 52745, 52853, 52961, 47662, 47626, 47860, 47770, 41789, 41789, 41969, 41924, 51796, 51742, 51967, 51931, 54525, 54552, 54714, 54669, 53201, 53183, 53381, 53390, 54528, 54546, 54645, 54744, 52975, 52957, 53191, 53209, 52670, 52589, 52868, 52886, 34625, 34634, 34688, 34697, 39790, 39763, 39907, 39898, 53852, 53906, 54041, 54104, 52821, 52605, 53019, 52812, 53475, 53403, 53700, 53592, 53024, 53024, 53222, 53267, 52361, 52343, 52658, 52640, 48394, 48376, 48628, 48610, 27074, 27083, 27182, 27191, 53286, 53322, 53592, 53646, 53665, 53701, 53980, 53962, 54529, 54511, 54745, 54646, 53923, 53995, 54193, 54175, 54419, 54383, 54599, 54590, 54557, 54440, 54674, 54710, 27033, 27159, 27123, 27267, 46375, 46510, 46681, 46681, 53242, 53170, 53467, 53431, 55067, 54959, 55238, 55175, 53211, 53355, 53409, 53562, 53091, 52983, 53442, 53190, 52542, 52533, 52695, 52803, 41205, 41259, 41385, 41412, 34662, 34680, 34806, 34779, 39325, 39325, 39523, 39460, 54146, 54227, 54299, 54263, 52813, 52822, 53083, 53074, 53258, 53222, 53465, 53420, 53399, 53372, 53660, 53597, 54212, 54230, 54383, 54374, 47423, 47468, 47630, 47684, 46716, 46860, 46851, 46887, 53754, 53682, 53970, 53916, 53864, 53873, 53972, 54071, 51852, 51735, 52059, 51906, 53168, 53231, 53420, 53402, 52628, 52691, 52871, 52889, 41749, 41722, 41884, 41875, 32967, 32949, 33048, 33075, 47141, 47222, 47276, 47348, 52281, 52326, 52605, 52569, 53319, 53265, 53481, 53481, 51819, 51900, 52071, 52080, 54104, 54050, 54293, 54293, 52671, 52761, 52959, 52932, 41617, 41599, 41770, 41725, 53425, 53461, 53668, 53668, 54969, 54879, 55140, 55068, 53421, 53340, 53700, 53466, 52809, 52971, 52953, 53142, 53968, 53842, 54157, 54022, 54585, 54360, 54711, 54621, 27115, 27151, 27250, 27241, 39840, 39930, 40011, 40038, 53252, 53360, 53459, 53630, 51980, 51908, 52178, 52178, 52778, 52706, 53012, 52904, 53030, 53021, 53156, 53237, 54125, 54233, 54296, 54530, 47581, 47527, 47779, 47689, 33309, 33318, 33390, 33444, 53562, 53463, 53697, 53607, 54087, 54087, 54285, 54267, 52802, 52802, 53027, 53072, 52551, 52632, 52812, 52848, 53936, 53918, 54161, 54134, 52564, 52483, 52789, 52663, 26598, 26589, 26688, 26670, 52877, 52967, 53030, 53192, 53491, 53473, 53644, 53653, 53801, 53720, 54053, 53918, 52960, 52897, 53167, 53113, 53429, 53420, 53618, 53645, 53539, 53620, 53728, 53836, 27019, 27001, 27028, 27082, 38588, 38642, 38723, 38759, 45569, 45659, 45839, 45884, 53560, 53632, 53785, 53794, 53260, 53323, 53521, 53530, 53450, 53675, 53765, 53891, 52566, 52629, 52782, 52809, 46471, 46363, 46678, 46588, 41011, 40993, 41155, 41182, 45747, 45774, 45918, 45981, 53454, 53418, 53715, 53616, 52926, 53187, 53250, 53376, 54386, 54521, 54593, 54656, 53332, 53260, 53575, 53413, 53871, 53781, 54006, 53988, 41145, 41109, 41361, 41235, 39149, 39050, 39257, 39194, 53464, 53545, 53653, 53770, 53458, 53440, 53710, 53701, 54009, 54126, 54261, 54252, 54625, 54580, 54778, 54841, 53953, 53899, 54016, 54070, 48017, 47927, 48233, 48206, 32092, 32146, 32236, 32227, 52952, 52880, 53132, 53069, 53297, 53477, 53558, 53639, 53060, 53033, 53276, 53285, 53710, 53530, 53899, 53746, 54396, 54414, 54567, 54603, 52876, 52885, 53020, 53074, 27335, 27308, 27371, 27389, 40683, 40593, 40917, 40755, 47884, 47704, 48181, 47929, 49494, 48936, 49656, 49116, 49583, 49358, 49700, 49502, 48269, 47900, 48503, 48188, 48820, 48415, 49054, 48676, 36764, 36521, 36908, 36764, 25555, 25258, 25735, 25357, 39856, 39325, 40117, 39496, 43018, 42352, 43126, 42469, 42099, 41550, 42315, 41730, 42710, 42233, 42944, 42359, 42491, 41843, 42725, 41978, 42478, 41875, 42631, 42028, 27169, 26836, 27268, 26917, 34417, 33697, 34696, 33850, 35449, 34729, 35620, 34837, 34899, 34341, 35052, 34467, 35060, 34376, 35231, 34502, 35902, 35146, 36073, 35263, 34767, 34200, 34965, 34344, 23631, 23298, 23703, 23415, 18866, 18452, 18911, 18515, 27730, 27127, 27838, 27181, 28164, 27399, 28245, 27462, 28203, 27483, 28275, 27609, 28456, 27736, 28627, 27862, 27775, 27100, 27874, 27199, 28104, 27321, 28176, 27393, 16149, 15870, 16194, 15888, 
gpgpu_n_tot_thrd_icount = 28723572160
gpgpu_n_tot_w_icount = 897611630
gpgpu_n_icache_hits = 487237860
gpgpu_n_icache_misses = 2019
gpgpu_n_l1dcache_read_hits = 1960626
gpgpu_n_l1dcache_read_misses = 1662734
gpgpu_n_l1dcache_write_accesses = 21632
gpgpu_n_l1dcache_wirte_misses = 21632
gpgpu_n_tcache_hits = 0
gpgpu_n_tcache_misses = 0
gpgpu_n_ccache_hits = 40998380
gpgpu_n_ccache_misses = 3970
gpgpu_n_stall_shd_mem = 4180515
gpgpu_n_mem_read_local = 0
gpgpu_n_mem_write_local = 0
gpgpu_n_mem_read_global = 1640170
gpgpu_n_mem_write_global = 21632
gpgpu_n_mem_texture = 0
gpgpu_n_mem_const = 924
gpgpu_n_load_insn  = 115947520
gpgpu_n_store_insn = 1384448
gpgpu_n_shmem_insn = -159355968
gpgpu_n_tex_insn = 0
gpgpu_n_const_mem_insn = 175305728
gpgpu_n_param_mem_insn = -2053555264
gpgpu_n_shmem_bkconflict = 0
gpgpu_n_cache_bkconflict = 0
gpgpu_n_intrawarp_mshr_merge = 0
gpgpu_n_cmem_portconflict = 567840
gpgpu_stall_shd_mem[c_mem][bk_conf] = 567840
gpgpu_stall_shd_mem[c_mem][mshr_rc] = 0
gpgpu_stall_shd_mem[c_mem][icnt_rc] = 0
gpgpu_stall_shd_mem[t_mem][mshr_rc] = 0
gpgpu_stall_shd_mem[t_mem][icnt_rc] = 0
gpgpu_stall_shd_mem[s_mem][bk_conf] = 1806272
gpgpu_stall_shd_mem[gl_mem][bk_conf] = 0
gpgpu_stall_shd_mem[gl_mem][coal_stall] = 1806403
gpgpu_stall_shd_mem[g_mem_ld][mshr_rc] = 0
gpgpu_stall_shd_mem[g_mem_ld][icnt_rc] = 0
gpgpu_stall_shd_mem[g_mem_ld][wb_icnt_rc] = 0
gpgpu_stall_shd_mem[g_mem_ld][wb_rsrv_fail] = 0
gpgpu_stall_shd_mem[g_mem_st][mshr_rc] = 0
gpgpu_stall_shd_mem[g_mem_st][icnt_rc] = 0
gpgpu_stall_shd_mem[g_mem_st][wb_icnt_rc] = 0
gpgpu_stall_shd_mem[g_mem_st][wb_rsrv_fail] = 0
gpgpu_stall_shd_mem[l_mem_ld][mshr_rc] = 0
gpgpu_stall_shd_mem[l_mem_ld][icnt_rc] = 0
gpgpu_stall_shd_mem[l_mem_ld][wb_icnt_rc] = 0
gpgpu_stall_shd_mem[l_mem_ld][wb_rsrv_fail] = 0
gpgpu_stall_shd_mem[l_mem_st][mshr_rc] = 0
gpgpu_stall_shd_mem[l_mem_st][icnt_rc] = 0
gpgpu_stall_shd_mem[l_mem_ld][wb_icnt_rc] = 0
gpgpu_stall_shd_mem[l_mem_ld][wb_rsrv_fail] = 0
gpu_reg_bank_conflict_stalls = 0
Warp Occupancy Distribution:
Stall:27096412	W0_Idle:218376	W0_Scoreboard:211856084	W1:2739969	W2:1854549	W3:2044566	W4:1984113	W5:1268649	W6:1913121	W7:1053396	W8:1998522	W9:1108584	W10:1375506	W11:1064574	W12:1645200	W13:1041615	W14:1547163	W15:1045179	W16:1922152	W17:946719	W18:1370475	W19:944073	W20:1519083	W21:1011402	W22:1481094	W23:965808	W24:1666557	W25:974601	W26:1374714	W27:874305	W28:1767222	W29:1405089	W30:1393398	W31:2522763	W32:851787469
maxmrqlatency = 99 
maxdqlatency = 0 
maxmflatency = 516 
averagemflatency = 131 
max_icnt2mem_latency = 273 
max_icnt2sh_latency = 40671517 
mrq_lat_table:24475 	258 	10893 	6164 	13809 	2007 	26 	0 	0 	0 	0 	0 	0 	0 	0 	0 	0 	0 	0 	0 	0 	0 	0 	0 	0 	0 	0 	0 	0 	0 	0 	0 	
dq_lat_table:0 	0 	0 	0 	0 	0 	0 	0 	0 	0 	0 	0 	0 	0 	0 	0 	0 	0 	0 	0 	0 	0 	0 	0 	0 	0 	0 	0 	0 	0 	0 	0 	
mf_lat_table:0 	0 	0 	0 	0 	0 	782374 	861053 	19298 	1 	0 	0 	0 	0 	0 	0 	0 	0 	0 	0 	0 	0 	0 	0 	0 	0 	0 	0 	0 	0 	0 	0 	
icnt2mem_lat_table:134 	1637596 	23244 	258 	304 	430 	597 	343 	2 	0 	0 	0 	0 	0 	0 	0 	0 	0 	0 	0 	0 	0 	0 	0 	
icnt2sh_lat_table:0 	796085 	832232 	12755 	22 	0 	0 	0 	0 	0 	0 	0 	0 	0 	0 	0 	0 	168 	168 	352 	656 	1180 	2296 	4696 	
mf_lat_pw_table:8388 	3728 	0 	0 	0 	0 	50346 	22361 	136 	0 	0 	0 	0 	0 	0 	0 	0 	0 	0 	0 	0 	0 	0 	0 	0 	0 	0 	0 	0 	0 	0 	0 	
maximum concurrent accesses to same row:
dram[0]:        64        64        64        64        64        64        64        64        64        64        64        64        64        64        64        64 
dram[1]:        64        64        64        64        64        64        64        64        64        64        64        64        64        64        64        64 
dram[2]:        64        64        64        64        64        64        64        64        64        64        64        64        64        64        64        64 
dram[3]:        64        64        64        64        64        64        64        64        64        64        64        64        64        64        64        64 
dram[4]:        64        64        64        64        64        64        64        64        64        64        64        64        64        64        64        64 
maximum service time to same row:
dram[0]:   5783438   5497691   5857783   5554589   5759588   5201433   5672388   5598794   5636173   5630541   5447026   5691986   5496647   5571578   5199053   5731114 
dram[1]:   5783432   5497685   5857777   5554480   5759584   5167252   5672388   5598789   5636180   5630535   5447032   5691986   5486095   5571574   5078751   5731115 
dram[2]:   5775159   5497824   5860495   5547974   5754485   5319224   5666944   5608022   5633713   5649506   5423006   5693543   5486141   5577130   5052385   5709908 
dram[3]:   5775162   5497826   5860500   5566460   5765895   5205767   5666944   5608026   5630078   5649949   5423008   5693539   5482343   5577128   5343146   5709914 
dram[4]:   5756941   5471749   5862656   5639625   5772952   5337727   5466151   5613965   5626791   5639784   5420661   5734212   5610583   5578336   5320619   5641603 
average row accesses per activate:
dram[0]:  8.918605  8.380953  7.489362  9.915493 27.916666 12.218182 12.000000 10.388060 10.352942  9.215190 10.563380 14.720000 13.629630 14.960000 15.673470  9.481482 
dram[1]:  9.228915  8.186047  8.282353  8.481928 24.000000 13.714286 12.444445 10.875000 10.352942  7.663158 10.388889 15.659575 13.886792 13.357142 13.016949  8.258064 
dram[2]:  8.148936  8.585366  8.691358  8.186047 24.000000 12.218182 12.218182 11.633333  9.777778  9.100000 10.535212 15.020409 14.431373 12.229508 13.714286  8.439561 
dram[3]:  9.329268  8.585366  8.186047  8.186047 25.846153 12.000000 11.200000 12.245614 10.507463  8.413794 10.535212 14.153846 14.153846 13.321428 16.000000  8.258064 
dram[4]:  8.085107  8.282353  7.410526  8.641975 22.400000 12.444445 11.200000 11.633333  9.386666  8.133333 10.388889 14.153846 12.266666 12.096774 15.360000  8.827586 
average row locality = 57632/5354 = 10.764288
number of total memory accesses made:
dram[0]:         0         0         0         0         0         0         0         0         0         0         0         0         0         0         0         0 
dram[1]:         0         0         0         0         0         0         0         0         0         0         0         0         0         0         0         0 
dram[2]:         0         0         0         0         0         0         0         0         0         0         0         0         0         0         0         0 
dram[3]:         0         0         0         0         0         0         0         0         0         0         0         0         0         0         0         0 
dram[4]:         0         0         0         0         0         0         0         0         0         0         0         0         0         0         0         0 
total accesses: 0
min_bank_accesses = 0!
min_chip_accesses = 0!
number of total read accesses:
dram[0]:       485       448       448       448       414       416       416       440       448       460       462       448       448       460       480       480 
dram[1]:       484       448       448       448       416       416       416       440       448       460       460       448       448       460       480       480 
dram[2]:       484       448       448       448       416       416       416       442       448       460       460       448       448       458       480       480 
dram[3]:       483       448       448       448       416       416       416       442       448       462       460       448       448       458       480       480 
dram[4]:       480       448       448       444       416       416       416       442       448       462       460       448       448       462       480       480 
total reads: 36000
bank skew: 485/414 = 1.17
chip skew: 7201/7198 = 1.00
number of total write accesses:
dram[0]:       282       256       256       256       256       256       256       256       256       268       288       288       288       288       288       288 
dram[1]:       282       256       256       256       256       256       256       256       256       268       288       288       288       288       288       288 
dram[2]:       282       256       256       256       256       256       256       256       256       268       288       288       288       288       288       288 
dram[3]:       282       256       256       256       256       256       256       256       256       270       288       288       288       288       288       288 
dram[4]:       280       256       256       256       256       256       256       256       256       270       288       288       288       288       288       288 
total reads: 21632
bank skew: 288/256 = 1.12
chip skew: 4328/4326 = 1.00
average mf latency per bank:
dram[0]:       3627      4308      4883      3080      3000      4350      3722      3441      4817      4169      2903      3837      3688      2415      3862      4467
dram[1]:       3621      4329      4861      3068      3032      4369      3715      3459      4837      4138      2919      3860      3662      2402      3871      4455
dram[2]:       3640      4306      4859      3110      3012      4358      3745      3429      4824      4173      2928      3851      3680      2406      3829      4464
dram[3]:       3662      4276      4866      3163      2958      4350      3764      3413      4797      4181      2946      3825      3710      2408      3793      4476
dram[4]:       3668      4297      4863      3146      2956      4346      3744      3414      4806      4163      2940      3833      3705      2405      3801      4480
maximum mf latency per bank:
dram[0]:        320       346       285       298       483       354       284       340       447       292       379       389       285       453       394       284
dram[1]:        296       299       285       316       410       336       285       412       445       294       438       516       297       358       459       333
dram[2]:        285       285       285       284       431       361       285       448       318       290       376       450       298       372       469       287
dram[3]:        436       312       285       284       457       367       285       501       298       291       420       388       285       399       458       285
dram[4]:        309       286       297       285       428       317       285       374       370       328       397       369       296       481       303       285

Number of Memory Banks Accessed per Memory Operation per Warp (from 0):
0	0	0	0	0	0	0	0	0	0	0	0	0	0	0	0	0	0	0	0	0	0	0	0	0	0	0	0	0	0	0	0	0	0	0	0	0	0	0	0	0	0	0	0	0	0	0	0	0	0	0	0	0	0	0	0	0	0	0	0	0	0	0	0	0	0	0	0	0	0	0	0	0	0	0	0	0	0	0	0	
Average # of Memory Banks Accessed per Memory Operation per Warp=-nan

position of mrq chosen
0	0	0	0	0	0	0	0	0	0	0	0	0	0	0	0	

average position of mrq chosen = -nan
gpgpu_l2_write_miss = 0
gpgpu_l2_write_access = 0
gpgpu_l2_read_miss = 0
gpgpu_l2_read_access = 0
Cache L2_bank_000:
MSHR contents
MSHR: tag=0x802a3700, atomic=0 1 entries : 0x8feca50 :  mf: uid=531908983, sid10:w02, part=0, addr=0x802a3700, load , size=128, unknown  status = IN_PARTITION_DRAM (40671517), 

DRAM[0]: 16 bks, busW=4 BL=8 CL=12, tRRD=2 tCCD=6, tRCD=12 tRAS=28 tRP=12 tRC=40
n_cmd=40671518 n_nop=40646402 n_act=1040 n_pre=1024 n_req=11527 n_rd=14400 n_write=8652 bw_util=0.001134
n_activity=199646 dram_eff=0.2309
bk0: 968a 40665313i bk1: 896a 40665246i bk2: 896a 40665615i bk3: 896a 40666044i bk4: 828a 40665376i bk5: 832a 40665317i bk6: 832a 40665086i bk7: 880a 40665254i bk8: 896a 40663896i bk9: 920a 40664040i bk10: 924a 40664197i bk11: 896a 40665672i bk12: 896a 40662616i bk13: 920a 40662386i bk14: 960a 40661727i bk15: 960a 40638251i 
dram_util_bins: 0 0 0 0 0 0 0 0 0 0
dram_eff_bins: 0 0 0 0 0 0 0 0 0 0
mrqq: max=6 avg=0.00249548
Cache L2_bank_001:
MSHR contents

DRAM[1]: 16 bks, busW=4 BL=8 CL=12, tRRD=2 tCCD=6, tRCD=12 tRAS=28 tRP=12 tRC=40
n_cmd=40671518 n_nop=40646330 n_act=1076 n_pre=1060 n_req=11526 n_rd=14400 n_write=8652 bw_util=0.001134
n_activity=200425 dram_eff=0.23
bk0: 968a 40665700i bk1: 896a 40665850i bk2: 896a 40665753i bk3: 896a 40665312i bk4: 832a 40664809i bk5: 832a 40665262i bk6: 832a 40665549i bk7: 880a 40665204i bk8: 896a 40664028i bk9: 920a 40663906i bk10: 920a 40664314i bk11: 896a 40665729i bk12: 896a 40662664i bk13: 920a 40662247i bk14: 960a 40661263i bk15: 960a 40637477i 
dram_util_bins: 0 0 0 0 0 0 0 0 0 0
dram_eff_bins: 0 0 0 0 0 0 0 0 0 0
mrqq: max=7 avg=0.00253625
Cache L2_bank_002:
MSHR contents

DRAM[2]: 16 bks, busW=4 BL=8 CL=12, tRRD=2 tCCD=6, tRCD=12 tRAS=28 tRP=12 tRC=40
n_cmd=40671518 n_nop=40646336 n_act=1073 n_pre=1057 n_req=11526 n_rd=14400 n_write=8652 bw_util=0.001134
n_activity=200744 dram_eff=0.2297
bk0: 968a 40665643i bk1: 896a 40665325i bk2: 896a 40665605i bk3: 896a 40665565i bk4: 832a 40664843i bk5: 832a 40664978i bk6: 832a 40665162i bk7: 884a 40665424i bk8: 896a 40663865i bk9: 920a 40663812i bk10: 920a 40664332i bk11: 896a 40666035i bk12: 896a 40662685i bk13: 916a 40662429i bk14: 960a 40661769i bk15: 960a 40637773i 
dram_util_bins: 0 0 0 0 0 0 0 0 0 0
dram_eff_bins: 0 0 0 0 0 0 0 0 0 0
mrqq: max=6 avg=0.00252223
Cache L2_bank_003:
MSHR contents

DRAM[3]: 16 bks, busW=4 BL=8 CL=12, tRRD=2 tCCD=6, tRCD=12 tRAS=28 tRP=12 tRC=40
n_cmd=40671518 n_nop=40646352 n_act=1062 n_pre=1046 n_req=11529 n_rd=14402 n_write=8656 bw_util=0.001134
n_activity=200446 dram_eff=0.2301
bk0: 966a 40665311i bk1: 896a 40665472i bk2: 896a 40665643i bk3: 896a 40665773i bk4: 832a 40665138i bk5: 832a 40665339i bk6: 832a 40665276i bk7: 884a 40665287i bk8: 896a 40663993i bk9: 924a 40664152i bk10: 920a 40664273i bk11: 896a 40665570i bk12: 896a 40662501i bk13: 916a 40662285i bk14: 960a 40661726i bk15: 960a 40637663i 
dram_util_bins: 0 0 0 0 0 0 0 0 0 0
dram_eff_bins: 0 0 0 0 0 0 0 0 0 0
mrqq: max=6 avg=0.00248673
Cache L2_bank_004:
MSHR contents
MSHR: tag=0x802a3680, atomic=0 1 entries : 0x8fecc80 :  mf: uid=531908984, sid10:w01, part=4, addr=0x802a3680, load , size=128, unknown  status = IN_PARTITION_DRAM (40671517), 

DRAM[4]: 16 bks, busW=4 BL=8 CL=12, tRRD=2 tCCD=6, tRCD=12 tRAS=28 tRP=12 tRC=40
n_cmd=40671518 n_nop=40646272 n_act=1108 n_pre=1092 n_req=11524 n_rd=14394 n_write=8652 bw_util=0.001133
n_activity=202279 dram_eff=0.2279
bk0: 958a 40665735i bk1: 896a 40665508i bk2: 896a 40665952i bk3: 888a 40665867i bk4: 832a 40665193i bk5: 832a 40664998i bk6: 832a 40665358i bk7: 884a 40665295i bk8: 896a 40663953i bk9: 924a 40663675i bk10: 920a 40664237i bk11: 896a 40665904i bk12: 896a 40662692i bk13: 924a 40662050i bk14: 960a 40661608i bk15: 960a 40636446i 
dram_util_bins: 0 0 0 0 0 0 0 0 0 0
dram_eff_bins: 0 0 0 0 0 0 0 0 0 0
mrqq: max=7 avg=0.00248823
Cache L2_bank_000:	Size = 131072 B (64 Set x 16-way x 128 byte line)
		Access = 332552, Miss = 7201 (0.0217), PendingHit = 804 (0.00242)
Cache L2_bank_001:	Size = 131072 B (64 Set x 16-way x 128 byte line)
		Access = 332495, Miss = 7200 (0.0217), PendingHit = 804 (0.00242)
Cache L2_bank_002:	Size = 131072 B (64 Set x 16-way x 128 byte line)
		Access = 332726, Miss = 7200 (0.0216), PendingHit = 788 (0.00237)
Cache L2_bank_003:	Size = 131072 B (64 Set x 16-way x 128 byte line)
		Access = 332596, Miss = 7201 (0.0217), PendingHit = 804 (0.00242)
Cache L2_bank_004:	Size = 131072 B (64 Set x 16-way x 128 byte line)
		Access = 332539, Miss = 7198 (0.0216), PendingHit = 773 (0.00232)
L2 Cache Total Miss Rate = 0.022

icnt_total_pkts_mem_to_simt=8226164
icnt_total_pkts_simt_to_mem=1749436

LD_mem_lat_dist  0 0 0 0 0 0 0 0 0 0 0 0 0 0 0 0 0 0 0 0 0 0 0 0 0 0 0
ST_mem_lat_dist  0 0 0 0 0 0 0 0 0 0 0 0 0 0 0 0 0 0 0 0 0 0 0 0 0 0 0
Traffic 0 Stat
%=================================
% Average latency = 1.07501
% Accepted packets = 0 at node 0 (avg = 0.000848028)
lat(3) = 1.07501;
thru(3,:) = [ 0 0 0 0 0 0 0 0 0 0 0 0 0 0 0.00390054 0.00390117 0.00390267 0.00389996 0.0039003 0 0 0 0 ];
% latency change    = 5.35421
% throughput change = 4.77324
Traffic 1 Stat
%=================================
% Average latency = 6.79453
% Accepted packets = 0 at node 14 (avg = 0.00398755)
lat(4) = 6.79453;
thru(4,:) = [ 0.00693998 0.00654609 0.0062971 0.00640196 0.00652673 0.00637702 0.00678218 0.00613912 0.00648913 0.00674001 0.00700609 0.00651563 0.00662251 0.00633009 0 0 0 0 0 0 0 0 0 ];
% latency change    = 0.841783
% throughput change = 0.787331
----------------------------Interconnect-DETAILS---------------------------------=======Traffic[0]class0 ======
Traffic[0]class0Overall average latency = 1.08996 (2 samples)
Traffic[0]class0Overall average accepted rate = 0.000944605 (2 samples)
Traffic[0]class0Overall min accepted rate = 0 (2 samples)
traffic_manager/latency_stat_0_freq = [ 0 813387 3663 119 85 7383 1104 363 1566 396 109 7 3 0 0 4 0 1 0 0 0 0 0 2 0 0 0 1 0 1 0 0 0 0 0 1 0 0 0 2 0 1 0 4 0 1 0 0 0 0 0 0 0 1 0 0 0 0 0 0 0 0 2 1 0 0 0 1 0 2 0 0 0 0 0 0 0 2 0 1 0 0 0 0 0 0 0 2 0 1 0 0 0 0 0 0 0 0 0 1 0 1 0 1 0 1 0 0 0 0 0 0 0 0 0 0 0 3 0 1 0 5 0 2 0 2 0 0 0 0 0 0 0 0 0 0 0 0 0 0 0 0 0 0 0 0 0 0 0 0 0 0 0 0 0 0 0 0 0 0 0 0 0 0 0 0 0 0 0 0 0 0 0 0 0 0 0 0 0 1 0 0 0 0 0 0 0 0 0 0 0 0 0 0 0 1 0 0 0 1 0 0 0 0 0 0 0 0 0 0 0 1 0 0 0 0 0 0 0 0 0 0 0 0 0 0 0 0 0 0 0 1 0 0 0 0 0 0 0 0 0 0 0 0 0 0 0 0 0 0 0 0 0 1 0 0 0 0 0 0 0 0 0 0 0 0 0 0 0 1 0 0 0 0 0 0 0 0 0 0 0 0 0 0 0 0 0 1 0 0 0 1 0 0 0 0 0 0 0 0 0 0 0 0 0 0 0 0 0 0 0 0 0 0 0 0 0 0 0 0 0 0 0 0 0 0 0 0 0 0 0 0 0 0 0 0 0 0 0 0 0 0 0 0 0 0 0 0 0 0 0 0 0 0 0 0 0 0 0 0 0 0 0 0 0 0 0 0 0 0 0 0 0 0 0 0 0 0 0 0 0 0 0 0 0 0 0 0 0 0 0 0 0 0 0 0 0 0 0 0 0 0 0 0 0 0 0 0 0 0 0 0 0 0 0 0 0 0 0 0 0 0 0 0 0 0 0 0 0 0 0 0 0 0 0 0 0 0 0 0 0 0 0 0 0 0 0 0 0 0 0 0 0 0 0 0 0 0 0 0 0 0 0 0 0 0 0 0 0 0 0 0 0 0 0 0 0 0 0 0 0 0 0 0 0 0 0 0 0 0 0 0 0 0 0 0 0 0 0 0 0 0 0 0 0 0 0 0 0 0 0 0 0 0 0 0 0 0 0 0 0 0 0 0 0 0 0 0 0 0 0 0 0 0 0 0 0 0 0 0 0 0 0 0 0 0 0 0 0 0 0 0 0 0 0 0 0 0 0 0 0 0 0 0 0 0 0 0 0 0 0 0 0 0 0 0 0 0 0 0 0 0 0 0 0 0 0 0 0 0 0 0 0 0 0 0 0 0 0 0 0 0 0 0 0 0 0 0 0 0 0 0 0 0 0 0 0 0 0 0 0 0 0 0 0 0 0 0 0 0 0 0 0 0 0 0 0 0 0 0 0 0 0 0 0 0 0 0 0 0 0 0 0 0 0 0 0 0 0 0 0 0 0 0 0 0 0 0 0 0 0 0 0 0 0 0 0 0 0 0 0 0 0 0 0 0 0 0 0 0 0 0 0 0 0 0 0 0 0 0 0 0 0 0 0 0 0 0 0 0 0 0 0 0 0 0 0 0 0 0 0 0 0 0 0 0 0 0 0 0 0 0 0 0 0 0 0 0 0 0 0 0 0 0 0 0 0 0 0 0 0 0 0 0 0 0 0 0 0 0 0 0 0 0 0 0 0 0 0 0 0 0 0 0 0 0 0 0 0 0 0 0 0 0 0 0 0 0 0 0 0 0 0 0 0 0 0 0 0 0 0 0 0 0 0 0 0 0 0 0 0 0 0 0 0 0 0 0 0 0 0 0 0 0 0 0 0 0 0 0 0 0 0 0 0 0 0 0 0 0 0 0 0 0 0 0 0 0 0 0 0 0 0 0 0 0 0 0 0 0 0 0 0 0 0 0 0 0 0 0 0 0 0 0 0 0 0 0 0 0 0 0 0 0 0 0 0 0 0 0 0 0 0 0 0 0 0 0 0 0 0 0 0 0 0 0 0 0 0 0 0 0 0 0 0 0 0 0 0 0 0 0 0 0 0 0 0 0 0 0 0 0 0 0 0 0 0 0 0 0 0 0 0 0 0 0 0 0 0 0 0 0 0 0 0 0 0 0 0 0 0 0 0 0 0 0 0 0 0 0 0 0 0 0 0 0 0 0 0 0 0 0 0 0 0 0 0 0 0 0 0 0 0 0 0 0 0 0 0 0 ];
Traffic[0]class1Average hops = 1 (1662908 samples)
traffic_manager/hop_stats_freq = [ 0 1662908 0 0 0 0 0 0 0 0 0 0 0 0 0 0 0 0 0 0 ];
=======Traffic[1]class0 ======
Traffic[1]class0Overall average latency = 6.81269 (2 samples)
Traffic[1]class0Overall average accepted rate = 0.00444171 (2 samples)
Traffic[1]class0Overall min accepted rate = 0 (2 samples)
traffic_manager/latency_stat_0_freq = [ 0 10540 46 48 59 389876 7981 10924 337874 18136 6446 5917 14644 6888 13567 643 2337 538 569 402 246 159 191 52 77 12 30 17 6 4 6 3 0 2 2 0 0 0 0 0 0 0 0 0 0 0 0 0 0 0 0 0 0 0 0 0 0 0 0 0 0 0 0 0 0 0 0 0 0 0 0 0 0 0 0 0 0 0 0 0 0 0 0 0 0 0 0 0 0 0 0 0 0 0 0 0 0 0 0 0 0 0 0 0 0 0 0 0 0 0 0 0 0 0 0 0 0 0 0 0 0 0 0 0 0 0 0 0 0 0 0 0 0 0 0 0 0 0 0 0 0 0 0 0 0 0 0 0 0 0 0 0 0 0 0 0 0 0 0 0 0 0 0 0 0 0 0 0 0 0 0 0 0 0 0 0 0 0 0 0 0 0 0 0 0 0 0 0 0 0 0 0 0 0 0 0 0 0 0 0 0 0 0 0 0 0 0 0 0 0 0 0 0 0 0 0 0 0 0 0 0 0 0 0 0 0 0 0 0 0 0 0 0 0 0 0 0 0 0 0 0 0 0 0 0 0 0 0 0 0 0 0 0 0 0 0 0 0 0 0 0 0 0 0 0 0 0 0 0 0 0 0 0 0 0 0 0 0 0 0 0 0 0 0 0 0 0 0 0 0 0 0 0 0 0 0 0 0 0 0 0 0 0 0 0 0 0 0 0 0 0 0 0 0 0 0 0 0 0 0 0 0 0 0 0 0 0 0 0 0 0 0 0 0 0 0 0 0 0 0 0 0 0 0 0 0 0 0 0 0 0 0 0 0 0 0 0 0 0 0 0 0 0 0 0 0 0 0 0 0 0 0 0 0 0 0 0 0 0 0 0 0 0 0 0 0 0 0 0 0 0 0 0 0 0 0 0 0 0 0 0 0 0 0 0 0 0 0 0 0 0 0 0 0 0 0 0 0 0 0 0 0 0 0 0 0 0 0 0 0 0 0 0 0 0 0 0 0 0 0 0 0 0 0 0 0 0 0 0 0 0 0 0 0 0 0 0 0 0 0 0 0 0 0 0 0 0 0 0 0 0 0 0 0 0 0 0 0 0 0 0 0 0 0 0 0 0 0 0 0 0 0 0 0 0 0 0 0 0 0 0 0 0 0 0 0 0 0 0 0 0 0 0 0 0 0 0 0 0 0 0 0 0 0 0 0 0 0 0 0 0 0 0 0 0 0 0 0 0 0 0 0 0 0 0 0 0 0 0 0 0 0 0 0 0 0 0 0 0 0 0 0 0 0 0 0 0 0 0 0 0 0 0 0 0 0 0 0 0 0 0 0 0 0 0 0 0 0 0 0 0 0 0 0 0 0 0 0 0 0 0 0 0 0 0 0 0 0 0 0 0 0 0 0 0 0 0 0 0 0 0 0 0 0 0 0 0 0 0 0 0 0 0 0 0 0 0 0 0 0 0 0 0 0 0 0 0 0 0 0 0 0 0 0 0 0 0 0 0 0 0 0 0 0 0 0 0 0 0 0 0 0 0 0 0 0 0 0 0 0 0 0 0 0 0 0 0 0 0 0 0 0 0 0 0 0 0 0 0 0 0 0 0 0 0 0 0 0 0 0 0 0 0 0 0 0 0 0 0 0 0 0 0 0 0 0 0 0 0 0 0 0 0 0 0 0 0 0 0 0 0 0 0 0 0 0 0 0 0 0 0 0 0 0 0 0 0 0 0 0 0 0 0 0 0 0 0 0 0 0 0 0 0 0 0 0 0 0 0 0 0 0 0 0 0 0 0 0 0 0 0 0 0 0 0 0 0 0 0 0 0 0 0 0 0 0 0 0 0 0 0 0 0 0 0 0 0 0 0 0 0 0 0 0 0 0 0 0 0 0 0 0 0 0 0 0 0 0 0 0 0 0 0 0 0 0 0 0 0 0 0 0 0 0 0 0 0 0 0 0 0 0 0 0 0 0 0 0 0 0 0 0 0 0 0 0 0 0 0 0 0 0 0 0 0 0 0 0 0 0 0 0 0 0 0 0 0 0 0 0 0 0 0 0 0 0 0 0 0 0 0 0 0 0 0 0 0 0 0 0 0 0 0 0 0 0 0 0 0 0 0 0 0 0 0 0 0 0 0 0 0 0 0 0 0 0 0 0 0 0 0 0 0 0 0 0 0 0 0 0 0 0 0 0 0 0 0 0 0 0 0 0 0 0 0 0 0 0 0 0 0 0 0 0 0 0 0 0 0 0 0 0 0 0 0 0 0 0 0 0 ];
Traffic[1]class1Average hops = 1 (1662908 samples)
traffic_manager/hop_stats_freq = [ 0 1662908 0 0 0 0 0 0 0 0 0 0 0 0 0 0 0 0 0 0 ];
----------------------------END-of-Interconnect-DETAILS-------------------------

gpgpu_simulation_time = 0 days, 16 hrs, 47 min, 39 sec (60459 sec)
gpgpu_simulation_rate = 444491 (inst/sec)
gpgpu_simulation_rate = 672 (cycle/sec)
Finished CUDA kernel calls                        
computing extra atoms on CPU


