GPGPU-Sim PTX: pushing kernel '_Z11syrk_kernelffPfS_' to stream 0, gridDim= (256,1,1) blockDim = (1024,1,1) 
gpu_sim_cycle = 94659997
gpu_ipc =      15.7242
total_dl1_misses=136568885
total_dl1_accesses=138420224
total_dl1_miss_rate= 0.986625
gpgpu_stall_shd_mem[gl_mem][coal_stall] = 1266433952
L2 Cache Total Miss Rate = 0.010
