

        *** GPGPU-Sim Simulator Version 3.2.1  [build 15629] ***


               1=functional simulation only, 0=detailed performance simulator)
GPGPU-Sim: Configuration options:

-network_mode                           1 # Interconnection network mode
-inter_config_file   config_fermi_islip.icnt # Interconnection network config file
-gpgpu_ptx_use_cuobjdump                    1 # Use cuobjdump to extract ptx and sass from binaries
-gpgpu_experimental_lib_support                    0 # Try to extract code from cuda libraries [Broken because of unknown cudaGetExportTable]
-gpgpu_ptx_convert_to_ptxplus                    0 # Convert SASS (native ISA) to ptxplus and run ptxplus
-gpgpu_ptx_force_max_capability                   20 # Force maximum compute capability
-gpgpu_ptx_inst_debug_to_file                    0 # Dump executed instructions' debug information to file
-gpgpu_ptx_inst_debug_file       inst_debug.txt # Executed instructions' debug output file
-gpgpu_ptx_inst_debug_thread_uid                    1 # Thread UID for executed instructions' debug output
-gpgpu_simd_model                       1 # 1 = post-dominator
-gpgpu_shader_core_pipeline              1536:32 # shader core pipeline config, i.e., {<nthread>:<warpsize>}
-gpgpu_tex_cache:l1  4:128:24,L:R:m:N,F:128:4,128:2 # per-shader L1 texture cache  (READ-ONLY) config  {<nsets>:<bsize>:<assoc>,<rep>:<wr>:<alloc>:<wr_alloc>,<mshr>:<N>:<merge>,<mq>:<rf>}
-gpgpu_const_cache:l1 64:64:2,L:R:f:N,A:2:32,4 # per-shader L1 constant memory cache  (READ-ONLY) config  {<nsets>:<bsize>:<assoc>,<rep>:<wr>:<alloc>:<wr_alloc>,<mshr>:<N>:<merge>,<mq>} 
-gpgpu_cache:il1     4:128:4,L:R:f:N,A:2:32,4 # shader L1 instruction cache config  {<nsets>:<bsize>:<assoc>,<rep>:<wr>:<alloc>:<wr_alloc>,<mshr>:<N>:<merge>,<mq>} 
-gpgpu_cache:dl1     32:128:4,L:L:m:N,A:32:8,8 # per-shader L1 data cache config  {<nsets>:<bsize>:<assoc>,<rep>:<wr>:<alloc>:<wr_alloc>,<mshr>:<N>:<merge>,<mq> | none}
-gpgpu_perfect_mem                      0 # enable perfect memory mode (no cache miss)
-n_regfile_gating_group                    4 # group of lanes that should be read/written together)
-gpgpu_clock_gated_reg_file                    0 # enable clock gated reg file for power calculations
-gpgpu_clock_gated_lanes                    0 # enable clock gated lanes for power calculations
-gpgpu_shader_registers                32768 # Number of registers per shader core. Limits number of concurrent CTAs. (default 8192)
-gpgpu_shader_cta                       8 # Maximum number of concurrent CTAs in shader (default 8)
-gpgpu_n_clusters                      14 # number of processing clusters
-gpgpu_n_cores_per_cluster                    1 # number of simd cores per cluster
-gpgpu_n_cluster_ejection_buffer_size                    8 # number of packets in ejection buffer
-gpgpu_n_ldst_response_buffer_size                    2 # number of response packets in ld/st unit ejection buffer
-gpgpu_shmem_size                   16384 # Size of shared memory per shader core (default 16kB)
-gpgpu_shmem_num_banks                   32 # Number of banks in the shared memory in each shader core (default 16)
-gpgpu_shmem_limited_broadcast                    0 # Limit shared memory to do one broadcast per cycle (default on)
-gpgpu_shmem_warp_parts                    1 # Number of portions a warp is divided into for shared memory bank conflict check 
-gpgpu_warpdistro_shader                   -1 # Specify which shader core to collect the warp size distribution from
-gpgpu_warp_issue_shader                    0 # Specify which shader core to collect the warp issue distribution from
-gpgpu_local_mem_map                    1 # Mapping from local memory space address to simulated GPU physical address space (default = enabled)
-gpgpu_num_reg_banks                   16 # Number of register banks (default = 8)
-gpgpu_reg_bank_use_warp_id                    0 # Use warp ID in mapping registers to banks (default = off)
-gpgpu_operand_collector_num_units_sp                    6 # number of collector units (default = 4)
-gpgpu_operand_collector_num_units_sfu                    8 # number of collector units (default = 4)
-gpgpu_operand_collector_num_units_mem                    2 # number of collector units (default = 2)
-gpgpu_operand_collector_num_units_gen                    0 # number of collector units (default = 0)
-gpgpu_operand_collector_num_in_ports_sp                    2 # number of collector unit in ports (default = 1)
-gpgpu_operand_collector_num_in_ports_sfu                    1 # number of collector unit in ports (default = 1)
-gpgpu_operand_collector_num_in_ports_mem                    1 # number of collector unit in ports (default = 1)
-gpgpu_operand_collector_num_in_ports_gen                    0 # number of collector unit in ports (default = 0)
-gpgpu_operand_collector_num_out_ports_sp                    2 # number of collector unit in ports (default = 1)
-gpgpu_operand_collector_num_out_ports_sfu                    1 # number of collector unit in ports (default = 1)
-gpgpu_operand_collector_num_out_ports_mem                    1 # number of collector unit in ports (default = 1)
-gpgpu_operand_collector_num_out_ports_gen                    0 # number of collector unit in ports (default = 0)
-gpgpu_coalesce_arch                   13 # Coalescing arch (default = 13, anything else is off for now)
-gpgpu_num_sched_per_core                    2 # Number of warp schedulers per core
-gpgpu_max_insn_issue_per_warp                    1 # Max number of instructions that can be issued per warp in one cycle by scheduler
-gpgpu_simt_core_sim_order                    1 # Select the simulation order of cores in a cluster (0=Fix, 1=Round-Robin)
-gpgpu_pipeline_widths        2,1,1,2,1,1,2 # Pipeline widths ID_OC_SP,ID_OC_SFU,ID_OC_MEM,OC_EX_SP,OC_EX_SFU,OC_EX_MEM,EX_WB
-gpgpu_num_sp_units                     2 # Number of SP units (default=1)
-gpgpu_num_sfu_units                    1 # Number of SF units (default=1)
-gpgpu_num_mem_units                    1 # Number if ldst units (default=1) WARNING: not hooked up to anything
-gpgpu_scheduler                      lrr # Scheduler configuration: < lrr | gto | two_level_active > If two_level_active:<num_active_warps>:<inner_prioritization>:<outer_prioritization>For complete list of prioritization values see shader.h enum scheduler_prioritization_typeDefault: gto
-gpgpu_dram_scheduler                    1 # 0 = fifo, 1 = FR-FCFS (defaul)
-gpgpu_dram_partition_queues              8:8:8:8 # i2$:$2d:d2$:$2i
-l2_ideal                               0 # Use a ideal L2 cache that always hit
-gpgpu_cache:dl2     64:128:16,L:B:m:W,A:32:4,4 # unified banked L2 data cache config  {<nsets>:<bsize>:<assoc>,<rep>:<wr>:<alloc>:<wr_alloc>,<mshr>:<N>:<merge>,<mq>}
-gpgpu_cache:dl2_texture_only                    0 # L2 cache used for texture only
-gpgpu_n_mem                            5 # number of memory modules (e.g. memory controllers) in gpu
-gpgpu_n_mem_per_ctrlr                    2 # number of memory chips per memory controller
-gpgpu_memlatency_stat                   14 # track and display latency statistics 0x2 enables MC, 0x4 enables queue logs
-gpgpu_frfcfs_dram_sched_queue_size                   16 # 0 = unlimited (default); # entries per chip
-gpgpu_dram_return_queue_size                    0 # 0 = unlimited (default); # entries per chip
-gpgpu_dram_buswidth                    4 # default = 4 bytes (8 bytes per cycle at DDR)
-gpgpu_dram_burst_length                    8 # Burst length of each DRAM request (default = 4 data bus cycle)
-dram_data_command_freq_ratio                    4 # Frequency ratio between DRAM data bus and command bus (default = 2 times, i.e. DDR)
-gpgpu_dram_timing_opt nbk=16:CCD=2:RRD=6:RCD=12:RAS=28:RP=12:RC=40: CL=12:WL=4:CDLR=5:WR=12:nbkgrp=4:CCDL=3:RTPL=2 # DRAM timing parameters = {nbk:tCCD:tRRD:tRCD:tRAS:tRP:tRC:CL:WL:tCDLR:tWR:nbkgrp:tCCDL:tRTPL}
-rop_latency                          120 # ROP queue latency (default 85)
-dram_latency                         100 # DRAM latency (default 30)
-gpgpu_mem_addr_mapping dramid@8;00000000.00000000.00000000.00000000.0000RRRR.RRRRRRRR.BBBBCCCC.CCSSSSSS # mapping memory address to dram model {dramid@<start bit>;<memory address map>}
-gpgpu_mem_addr_test                    0 # run sweep test to check address mapping for aliased address
-gpgpu_mem_address_mask                    1 # 0 = old addressing mask, 1 = new addressing mask, 2 = new add. mask + flipped bank sel and chip sel bits
-gpuwattch_xml_file         gpuwattch.xml # GPUWattch XML file
-power_simulation_enabled                    1 # Turn on power simulator (1=On, 0=Off)
-power_per_cycle_dump                    0 # Dump detailed power output each cycle
-power_trace_enabled                    1 # produce a file for the power trace (1=On, 0=Off)
-power_trace_zlevel                     6 # Compression level of the power trace output log (0=no comp, 9=highest)
-steady_power_levels_enabled                    0 # produce a file for the steady power levels (1=On, 0=Off)
-steady_state_definition                  8:4 # allowed deviation:number of samples
-gpgpu_max_cycle                        0 # terminates gpu simulation early (0 = no limit)
-gpgpu_max_insn                         0 # terminates gpu simulation early (0 = no limit)
-gpgpu_max_cta                          0 # terminates gpu simulation early (0 = no limit)
-gpgpu_runtime_stat                   500 # display runtime statistics such as dram utilization {<freq>:<flag>}
-gpgpu_flush_l1_cache                    0 # Flush L1 cache at the end of each kernel call
-gpgpu_flush_l2_cache                    0 # Flush L2 cache at the end of each kernel call
-gpgpu_deadlock_detect                    1 # Stop the simulation at deadlock (1=on (default), 0=off)
-gpgpu_ptx_instruction_classification                    0 # if enabled will classify ptx instruction types per kernel (Max 255 kernels now)
-gpgpu_ptx_sim_mode                     0 # Select between Performance (default) or Functional simulation (1)
-gpgpu_clock_domains 600.0:1200.0:600.0:750.0 # Clock Domain Frequencies in MhZ {<Core Clock>:<ICNT Clock>:<L2 Clock>:<DRAM Clock>}
-gpgpu_max_concurrent_kernel                    8 # maximum kernels that can run concurrently on GPU
-gpgpu_cflog_interval                    0 # Interval between each snapshot in control flow logger
-visualizer_enabled                     0 # Turn on visualizer output (1=On, 0=Off)
-visualizer_outputfile                 NULL # Specifies the output log file for visualizer
-visualizer_zlevel                      6 # Compression level of the visualizer output log (0=no comp, 9=highest)
-trace_enabled                          0 # Turn on traces
-trace_components                    none # comma seperated list of traces to enable. Complete list found in trace_streams.tup. Default none
-trace_sampling_core                    0 # The core which is printed using CORE_DPRINTF. Default 0
-enable_ptx_file_line_stats                    1 # Turn on PTX source line statistic profiling. (1 = On)
-ptx_line_stats_filename gpgpu_inst_stats.txt # Output file for PTX source line statistics.
-save_embedded_ptx                      0 # saves ptx files embedded in binary as <n>.ptx
-keep                                   0 # keep intermediate files created by GPGPU-Sim when interfacing with external programs
-gpgpu_ptx_save_converted_ptxplus                    0 # Saved converted ptxplus to a file
-ptx_opcode_latency_int         4,13,4,5,145 # Opcode latencies for integers <ADD,MAX,MUL,MAD,DIV>Default 1,1,19,25,145
-ptx_opcode_latency_fp          4,13,4,5,39 # Opcode latencies for single precision floating points <ADD,MAX,MUL,MAD,DIV>Default 1,1,1,1,30
-ptx_opcode_latency_dp         8,19,8,8,330 # Opcode latencies for double precision floating points <ADD,MAX,MUL,MAD,DIV>Default 8,8,8,8,335
-ptx_opcode_initiation_int            1,2,2,1,8 # Opcode initiation intervals for integers <ADD,MAX,MUL,MAD,DIV>Default 1,1,4,4,32
-ptx_opcode_initiation_fp            1,2,1,1,4 # Opcode initiation intervals for single precision floating points <ADD,MAX,MUL,MAD,DIV>Default43485988f8bb643b1879225508203e63  /tmp/tmp.NSpqpOxYm5/correlation__SIZE1_1
 1,1,1,1,5
-ptx_opcode_initiation_dp         8,16,8,8,130 # Opcode initiation intervals for double precision floating points <ADD,MAX,MUL,MAD,DIV>Default 8,8,8,8,130
DRAM Timing Options:
nbk                                    16 # number of banks
CCD                                     2 # column to column delay
RRD                                     6 # minimal delay between activation of rows in different banks
RCD                                    12 # row to column delay
RAS                                    28 # time needed to activate row
RP                                     12 # time needed to precharge (deactivate) row
RC                                     40 # row cycle time
CDLR                                    5 # switching from write to read (changes tWTR)
WR                                     12 # last data-in to row precharge
CL                                     12 # CAS latency
WL                                      4 # Write latency
nbkgrp                                  4 # number of bank groups
CCDL                                    3 # column to column delay between accesses to different bank groups
RTPL                                    2 # read to precharge delay between accesses to different bank groups
addr_dec_mask[CHIP]  = 0000000000000000 	high:64 low:0
addr_dec_mask[BK]    = 000000000000f000 	high:16 low:12
addr_dec_mask[ROW]   = 000000000fff0000 	high:28 low:16
addr_dec_mask[COL]   = 0000000000000fff 	high:12 low:0
addr_dec_mask[BURST] = 000000000000003f 	high:6 low:0
*** Initializing Memory Statistics ***
self exe links to: /tmp/tmp.NSpqpOxYm5/correlation__SIZE1_1
Running md5sum using "md5sum /tmp/tmp.NSpqpOxYm5/correlation__SIZE1_1 "
Running cuobjdump using "$CUDA_INSTALL_PATH/bin/cuobjdump -ptx -elf -sass /tmp/tmp.NSpqpOxYm5/correlation__SIZE1_1 > _cuobjdump_complete_output_G0a3Pf"
Parsing file _cuobjdump_complete_output_G0a3Pf
######### cuobjdump parser ########
## Adding new section PTX
Adding ptx filename: _cuobjdump_1.ptx
Adding arch: sm_13
Adding identifier: benchmarks/correlation/correlation.cu
## Adding new section ELF
Adding arch: sm_13
Adding identifier: benchmarks/correlation/correlation.cu
Done parsing!!!
Adding _cuobjdump_1.ptx with cubin handle 1
Running: cat _ptx_Z6SQ6E | sed 's/.version 1.5/.version 1.4/' | sed 's/, texmode_independent//' | sed 's/\(\.extern \.const\[1\] .b8 \w\+\)\[\]/\1\[1\]/' | sed 's/const\[.\]/const\[0\]/g' > _ptx2_iqlFn4

kernel '_Z11mean_kernelPfS_' transfer to GPU hardware scheduler
kernel_name = _Z11mean_kernelPfS_ 
kernel_launch_uid = 1 
gpu_sim_cycle = 78023
gpu_sim_insn = 3717120
gpu_ipc =      47.6413
gpu_tot_sim_cycle = 78023
gpu_tot_sim_insn = 3717120
gpu_tot_ipc =      47.6413
gpu_tot_issued_cta = 0
gpu_stall_dramfull = 0
gpu_stall_icnt2sh    = 1210
gpu_total_sim_rate=337920
Cache L1D_000:	Size = 16384 B (32 Set x 4-way x 128 byte line)
		Access = 0, Miss = 0 (-nan), PendingHit = 0 (-nan)
Cache L1D_001:	Size = 16384 B (32 Set x 4-way x 128 byte line)
		Access = 16128, Miss = 8440 (0.523), PendingHit = 7627 (0.473)
Cache L1D_002:	Size = 16384 B (32 Set x 4-way x 128 byte line)
		Access = 16128, Miss = 8440 (0.523), PendingHit = 7677 (0.476)
Cache L1D_003:	Size = 16384 B (32 Set x 4-way x 128 byte line)
		Access = 0, Miss = 0 (-nan), PendingHit = 0 (-nan)
Cache L1D_004:	Size = 16384 B (32 Set x 4-way x 128 byte line)
		Access = 0, Miss = 0 (-nan), PendingHit = 0 (-nan)
Cache L1D_005:	Size = 16384 B (32 Set x 4-way x 128 byte line)
		Access = 0, Miss = 0 (-nan), PendingHit = 0 (-nan)
Cache L1D_006:	Size = 16384 B (32 Set x 4-way x 128 byte line)
		Access = 0, Miss = 0 (-nan), PendingHit = 0 (-nan)
Cache L1D_007:	Size = 16384 B (32 Set x 4-way x 128 byte line)
		Access = 0, Miss = 0 (-nan), PendingHit = 0 (-nan)
Cache L1D_008:	Size = 16384 B (32 Set x 4-way x 128 byte line)
		Access = 0, Miss = 0 (-nan), PendingHit = 0 (-nan)
Cache L1D_009:	Size = 16384 B (32 Set x 4-way x 128 byte line)
		Access = 0, Miss = 0 (-nan), PendingHit = 0 (-nan)
Cache L1D_010:	Size = 16384 B (32 Set x 4-way x 128 byte line)
		Access = 0, Miss = 0 (-nan), PendingHit = 0 (-nan)
Cache L1D_011:	Size = 16384 B (32 Set x 4-way x 128 byte line)
		Access = 0, Miss = 0 (-nan), PendingHit = 0 (-nan)
Cache L1D_012:	Size = 16384 B (32 Set x 4-way x 128 byte line)
		Access = 0, Miss = 0 (-nan), PendingHit = 0 (-nan)
Cache L1D_013:	Size = 16384 B (32 Set x 4-way x 128 byte line)
		Access = 0, Miss = 0 (-nan), PendingHit = 0 (-nan)
total_dl1_misses=16880
total_dl1_accesses=32256
total_dl1_miss_rate= 0.523313
Shader 0 dynamic_warp_id issue ditsribution:
dynamic_warp_id:

distro:

gpgpu_n_tot_thrd_icount = 3721216
gpgpu_n_tot_w_icount = 116288
gpgpu_n_icache_hits = 66368
gpgpu_n_icache_misses = 128
gpgpu_n_l1dcache_read_hits = 72
gpgpu_n_l1dcache_read_misses = 32184
gpgpu_n_l1dcache_write_accesses = 33024
gpgpu_n_l1dcache_wirte_misses = 33024
gpgpu_n_tcache_hits = 0
gpgpu_n_tcache_misses = 0
gpgpu_n_ccache_hits = 64
gpgpu_n_ccache_misses = 64
gpgpu_n_stall_shd_mem = 41414
gpgpu_n_mem_read_local = 0
gpgpu_n_mem_write_local = 0
gpgpu_n_mem_read_global = 16880
gpgpu_n_mem_write_global = 33024
gpgpu_n_mem_texture = 0
gpgpu_n_mem_const = 2
gpgpu_n_load_insn  = 1048576
gpgpu_n_store_insn = 1056768
gpgpu_n_shmem_insn = 0
gpgpu_n_tex_insn = 0
gpgpu_n_const_mem_insn = 0
gpgpu_n_param_mem_insn = 8192
gpgpu_n_shmem_bkconflict = 0
gpgpu_n_cache_bkconflict = 0
gpgpu_n_intrawarp_mshr_merge = 0
gpgpu_n_cmem_portconflict = 0
gpgpu_stall_shd_mem[c_mem][bk_conf] = 0
gpgpu_stall_shd_mem[c_mem][mshr_rc] = 0
gpgpu_stall_shd_mem[c_mem][icnt_rc] = 0
gpgpu_stall_shd_mem[t_mem][mshr_rc] = 0
gpgpu_stall_shd_mem[t_mem][icnt_rc] = 0
gpgpu_stall_shd_mem[s_mem][bk_conf] = 0
gpgpu_stall_shd_mem[gl_mem][bk_conf] = 0
gpgpu_stall_shd_mem[gl_mem][coal_stall] = 41414
gpgpu_stall_shd_mem[g_mem_ld][mshr_rc] = 0
gpgpu_stall_shd_mem[g_mem_ld][icnt_rc] = 0
gpgpu_stall_shd_mem[g_mem_ld][wb_icnt_rc] = 0
gpgpu_stall_shd_mem[g_mem_ld][wb_rsrv_fail] = 0
gpgpu_stall_shd_mem[g_mem_st][mshr_rc] = 0
gpgpu_stall_shd_mem[g_mem_st][icnt_rc] = 0
gpgpu_stall_shd_mem[g_mem_st][wb_icnt_rc] = 0
gpgpu_stall_shd_mem[g_mem_st][wb_rsrv_fail] = 0
gpgpu_stall_shd_mem[l_mem_ld][mshr_rc] = 0
gpgpu_stall_shd_mem[l_mem_ld][icnt_rc] = 0
gpgpu_stall_shd_mem[l_mem_ld][wb_icnt_rc] = 0
gpgpu_stall_shd_mem[l_mem_ld][wb_rsrv_fail] = 0
gpgpu_stall_shd_mem[l_mem_st][mshr_rc] = 0
gpgpu_stall_shd_mem[l_mem_st][icnt_rc] = 0
gpgpu_stall_shd_mem[l_mem_ld][wb_icnt_rc] = 0
gpgpu_stall_shd_mem[l_mem_ld][wb_rsrv_fail] = 0
gpu_reg_bank_conflict_stalls = 0
Warp Occupancy Distribution:
Stall:3372	W0_Idle:2406	W0_Scoreboard:190010	W1:0	W2:0	W3:0	W4:0	W5:0	W6:0	W7:0	W8:0	W9:0	W10:0	W11:0	W12:0	W13:0	W14:0	W15:0	W16:0	W17:0	W18:0	W19:0	W20:0	W21:0	W22:0	W23:0	W24:0	W25:0	W26:0	W27:0	W28:0	W29:0	W30:0	W31:0	W32:116288
maxmrqlatency = 167 
maxdqlatency = 0 
maxmflatency = 453 
averagemflatency = 171 
max_icnt2mem_latency = 28 
max_icnt2sh_latency = 78022 
mrq_lat_table:11601 	2549 	1077 	709 	484 	64 	65 	40 	0 	0 	0 	0 	0 	0 	0 	0 	0 	0 	0 	0 	0 	0 	0 	0 	0 	0 	0 	0 	0 	0 	0 	0 	
dq_lat_table:0 	0 	0 	0 	0 	0 	0 	0 	0 	0 	0 	0 	0 	0 	0 	0 	0 	0 	0 	0 	0 	0 	0 	0 	0 	0 	0 	0 	0 	0 	0 	0 	
mf_lat_table:0 	0 	0 	0 	0 	0 	10208 	35292 	4406 	0 	0 	0 	0 	0 	0 	0 	0 	0 	0 	0 	0 	0 	0 	0 	0 	0 	0 	0 	0 	0 	0 	0 	
icnt2mem_lat_table:1 	15991 	20920 	11276 	1722 	0 	0 	0 	0 	0 	0 	0 	0 	0 	0 	0 	0 	0 	0 	0 	0 	0 	0 	0 	
icnt2sh_lat_table:0 	7910 	5466 	3052 	452 	2 	0 	0 	0 	44 	351 	848 	1768 	3506 	7019 	14054 	5434 	0 	0 	0 	0 	0 	0 	0 	
mf_lat_pw_table:0 	0 	0 	0 	0 	0 	0 	153 	2 	0 	0 	0 	0 	0 	0 	0 	0 	0 	0 	0 	0 	0 	0 	0 	0 	0 	0 	0 	0 	0 	0 	0 	
maximum concurrent accesses to same row:
dram[0]:        32        32        32        32        32        32        32        32        32        32        32        32        32        32        32        32 
dram[1]:        32        32        32        32        32        32        32        32        32        32        32        32        32        32        32        32 
dram[2]:        32        32        32        32        32        32        32        32        32        32        32        32        32        32        32        32 
dram[3]:        32        32        32        32        32        32        32        32        32        32        32        32        32        32        32        32 
dram[4]:        32        32        32        32        32        32        32        32        32        32        32        32        32        32        32        32 
maximum service time to same row:
dram[0]:     12056     12028     12027     12002     12053     12010     12004     12044     12032     12418     12066     12049     12032     12080     12030     12035 
dram[1]:     12051     11968     11980     11972     11990     12010     12015     12021     12050     12420     12068     12056     12038     12058     12026     11994 
dram[2]:     12032     12062     11968     12047     12057     12019     12045     12129     12037     12404     12061     12053     12026     12045     11996     12039 
dram[3]:     12058     12048     11990     12010     12053     12092     12117     12085     12190     12404     12168     12065     12101     12043     12096     12023 
dram[4]:     12097     11995     12030     11990     12028     12003     11992     11971     12110     12416     12121     12044     12029     12075     12059     11986 
average row accesses per activate:
dram[0]: 30.142857 32.000000 32.000000 32.000000 32.000000 32.000000 32.000000 30.857143 30.000000 32.000000 32.000000 32.000000 32.000000 32.000000 32.000000 32.000000 
dram[1]: 29.571428 32.000000 32.000000 32.000000 32.000000 32.000000 32.000000 30.857143 29.428572 32.000000 32.000000 32.000000 32.000000 32.000000 32.000000 32.000000 
dram[2]: 29.428572 32.000000 32.000000 32.000000 32.000000 32.000000 32.000000 30.857143 29.142857 32.000000 32.000000 32.000000 32.000000 32.000000 32.000000 32.000000 
dram[3]: 29.428572 32.000000 32.000000 32.000000 32.000000 32.000000 32.000000 30.857143 29.142857 32.000000 32.000000 32.000000 32.000000 32.000000 32.000000 32.000000 
dram[4]: 29.428572 32.000000 32.000000 32.000000 32.000000 32.000000 32.000000 31.571428 29.142857 32.000000 32.000000 32.000000 32.000000 32.000000 32.000000 32.000000 
average row locality = 16589/525 = 31.598095
number of total memory accesses made:
dram[0]:         0         0         0         0         0         0         0         0         0         0         0         0         0         0         0         0 
dram[1]:         0         0         0         0         0         0         0         0         0         0         0         0         0         0         0         0 
dram[2]:         0         0         0         0         0         0         0         0         0         0         0         0         0         0         0         0 
dram[3]:         0         0         0         0         0         0         0         0         0         0         0         0         0         0         0         0 
dram[4]:         0         0         0         0         0         0         0         0         0         0         0         0         0         0         0         0 
total accesses: 0
min_bank_accesses = 0!
min_chip_accesses = 0!
number of total read accesses:
dram[0]:       211       192       192       192       192       192       192       200       198       192       224       224       224       224       224       224 
dram[1]:       207       192       192       192       192       192       192       200       197       192       224       224       224       224       224       224 
dram[2]:       206       192       192       192       192       192       192       200       196       192       224       224       224       224       224       224 
dram[3]:       206       192       192       192       192       192       192       200       196       192       224       224       224       224       224       224 
dram[4]:       206       192       192       192       192       192       192       202       196       192       224       224       224       224       224       224 
total reads: 16461
bank skew: 224/192 = 1.17
chip skew: 3297/3290 = 1.00
number of total write accesses:
dram[0]:         0         0         0         0         0         0         0        16        12         0         0         0         0         0         0         0 
dram[1]:         0         0         0         0         0         0         0        16         9         0         0         0         0         0         0         0 
dram[2]:         0         0         0         0         0         0         0        16         8         0         0         0         0         0         0         0 
dram[3]:         0         0         0         0         0         0         0        16         8         0         0         0         0         0         0         0 
dram[4]:         0         0         0         0         0         0         0        19         8         0         0         0         0         0         0         0 
total reads: 128
min_bank_accesses = 0!
chip skew: 28/24 = 1.17
average mf latency per bank:
dram[0]:        255       257       257       258       256       257       256      2748      2188       254       258       260       257       256       256       255
dram[1]:        256       256       259       256       257       256       256      2753      1726       256       260       257       258       256       255       257
dram[2]:        256       256       258       257       255       258       256      2741      1571       255       258       258       258       256       256       257
dram[3]:        258       257       259       257       255       258       255      2740      1568       253       259       257       257       256       256       257
dram[4]:        256       256       256       257       257       258       256      3147      1573       255       259       259       257       257       256       256
maximum mf latency per bank:
dram[0]:        276       279       287       277       286       286       294       421       379       281       298       313       281       287       274       276
dram[1]:        282       272       290       284       285       283       286       424       319       284       313       287       284       280       278       282
dram[2]:        280       274       283       277       285       276       294       410       319       289       316       287       280       290       276       279
dram[3]:        290       277       281       277       278       279       284       409       313       272       292       290       278       281       277       282
dram[4]:        274       273       280       273       273       285       277       453       318       285       313       291       290       288       277       276

Number of Memory Banks Accessed per Memory Operation per Warp (from 0):
0	0	0	0	0	0	0	0	0	0	0	0	0	0	0	0	0	0	0	0	0	0	0	0	0	0	0	0	0	0	0	0	0	0	0	0	0	0	0	0	0	0	0	0	0	0	0	0	0	0	0	0	0	0	0	0	0	0	0	0	0	0	0	0	0	0	0	0	0	0	0	0	0	0	0	0	0	0	0	0	
Average # of Memory Banks Accessed per Memory Operation per Warp=-nan

position of mrq chosen
0	0	0	0	0	0	0	0	0	0	0	0	0	0	0	0	

average position of mrq chosen = -nan
gpgpu_l2_write_miss = 0
gpgpu_l2_write_access = 0
gpgpu_l2_read_miss = 0
gpgpu_l2_read_access = 0
Cache L2_bank_000:
MSHR contents

DRAM[0]: 16 bks, busW=4 BL=8 CL=12, tRRD=2 tCCD=6, tRCD=12 tRAS=28 tRP=12 tRC=40
n_cmd=97528 n_nop=90696 n_act=106 n_pre=90 n_req=3325 n_rd=6594 n_write=42 bw_util=0.1361
n_activity=37335 dram_eff=0.3555
bk0: 422a 96719i bk1: 384a 96695i bk2: 384a 96618i bk3: 384a 96597i bk4: 384a 96541i bk5: 384a 96519i bk6: 384a 96519i bk7: 400a 96513i bk8: 396a 96448i bk9: 384a 96479i bk10: 448a 96467i bk11: 448a 96408i bk12: 448a 96367i bk13: 448a 96348i bk14: 448a 96196i bk15: 448a 94289i 
dram_util_bins: 0 0 0 0 0 0 0 0 0 0
dram_eff_bins: 0 0 0 0 0 0 0 0 0 0
mrqq: max=16 avg=0.109384
Cache L2_bank_001:
MSHR contents

DRAM[1]: 16 bks, busW=4 BL=8 CL=12, tRRD=2 tCCD=6, tRCD=12 tRAS=28 tRP=12 tRC=40
n_cmd=97528 n_nop=90713 n_act=105 n_pre=89 n_req=3317 n_rd=6584 n_write=37 bw_util=0.1358
n_activity=36883 dram_eff=0.359
bk0: 414a 96781i bk1: 384a 96708i bk2: 384a 96626i bk3: 384a 96593i bk4: 384a 96517i bk5: 384a 96496i bk6: 384a 96499i bk7: 400a 96518i bk8: 394a 96512i bk9: 384a 96473i bk10: 448a 96483i bk11: 448a 96474i bk12: 448a 96332i bk13: 448a 96264i bk14: 448a 96024i bk15: 448a 94446i 
dram_util_bins: 0 0 0 0 0 0 0 0 0 0
dram_eff_bins: 0 0 0 0 0 0 0 0 0 0
mrqq: max=16 avg=0.100915
Cache L2_bank_002:
MSHR contents

DRAM[2]: 16 bks, busW=4 BL=8 CL=12, tRRD=2 tCCD=6, tRCD=12 tRAS=28 tRP=12 tRC=40
n_cmd=97528 n_nop=90718 n_act=105 n_pre=89 n_req=3314 n_rd=6580 n_write=36 bw_util=0.1357
n_activity=36968 dram_eff=0.3579
bk0: 412a 96755i bk1: 384a 96697i bk2: 384a 96627i bk3: 384a 96567i bk4: 384a 96495i bk5: 384a 96532i bk6: 384a 96471i bk7: 400a 96486i bk8: 392a 96473i bk9: 384a 96514i bk10: 448a 96496i bk11: 448a 96461i bk12: 448a 96381i bk13: 448a 96296i bk14: 448a 96164i bk15: 448a 94329i 
dram_util_bins: 0 0 0 0 0 0 0 0 0 0
dram_eff_bins: 0 0 0 0 0 0 0 0 0 0
mrqq: max=16 avg=0.106369
Cache L2_bank_003:
MSHR contents

DRAM[3]: 16 bks, busW=4 BL=8 CL=12, tRRD=2 tCCD=6, tRCD=12 tRAS=28 tRP=12 tRC=40
n_cmd=97528 n_nop=90718 n_act=105 n_pre=89 n_req=3314 n_rd=6580 n_write=36 bw_util=0.1357
n_activity=36918 dram_eff=0.3584
bk0: 412a 96754i bk1: 384a 96739i bk2: 384a 96655i bk3: 384a 96563i bk4: 384a 96542i bk5: 384a 96534i bk6: 384a 96454i bk7: 400a 96524i bk8: 392a 96488i bk9: 384a 96527i bk10: 448a 96433i bk11: 448a 96522i bk12: 448a 96415i bk13: 448a 96275i bk14: 448a 96083i bk15: 448a 94268i 
dram_util_bins: 0 0 0 0 0 0 0 0 0 0
dram_eff_bins: 0 0 0 0 0 0 0 0 0 0
mrqq: max=16 avg=0.105354
Cache L2_bank_004:
MSHR contents

DRAM[4]: 16 bks, busW=4 BL=8 CL=12, tRRD=2 tCCD=6, tRCD=12 tRAS=28 tRP=12 tRC=40
n_cmd=97528 n_nop=90709 n_act=105 n_pre=89 n_req=3319 n_rd=6584 n_write=41 bw_util=0.1359
n_activity=37316 dram_eff=0.3551
bk0: 412a 96709i bk1: 384a 96724i bk2: 384a 96627i bk3: 384a 96612i bk4: 384a 96513i bk5: 384a 96577i bk6: 384a 96525i bk7: 404a 96568i bk8: 392a 96479i bk9: 384a 96450i bk10: 448a 96475i bk11: 448a 96522i bk12: 448a 96416i bk13: 448a 96260i bk14: 448a 96127i bk15: 448a 94224i 
dram_util_bins: 0 0 0 0 0 0 0 0 0 0
dram_eff_bins: 0 0 0 0 0 0 0 0 0 0
mrqq: max=16 avg=0.112193
Cache L2_bank_000:	Size = 131072 B (64 Set x 16-way x 128 byte line)
		Access = 10607, Miss = 3297 (0.311), PendingHit = 86 (0.00811)
Cache L2_bank_001:	Size = 131072 B (64 Set x 16-way x 128 byte line)
		Access = 9827, Miss = 3292 (0.335), PendingHit = 79 (0.00804)
Cache L2_bank_002:	Size = 131072 B (64 Set x 16-way x 128 byte line)
		Access = 9568, Miss = 3290 (0.344), PendingHit = 80 (0.00836)
Cache L2_bank_003:	Size = 131072 B (64 Set x 16-way x 128 byte line)
		Access = 9568, Miss = 3290 (0.344), PendingHit = 80 (0.00836)
Cache L2_bank_004:	Size = 131072 B (64 Set x 16-way x 128 byte line)
		Access = 10340, Miss = 3292 (0.318), PendingHit = 80 (0.00774)
L2 Cache Total Miss Rate = 0.330

icnt_total_pkts_mem_to_simt=117450
icnt_total_pkts_simt_to_mem=132470

LD_mem_lat_dist  0 0 0 0 0 0 0 0 0 0 0 0 0 0 0 0 0 0 0 0 0 0 0 0 0 0 0
ST_mem_lat_dist  0 0 0 0 0 0 0 0 0 0 0 0 0 0 0 0 0 0 0 0 0 0 0 0 0 0 0
Traffic 0 Stat
%=================================
% Average latency = 6.81885
% Accepted packets = 0 at node 0 (avg = 0.0369096)
lat(1) = 6.81885;
thru(1,:) = [ 0 0 0 0 0 0 0 0 0 0 0 0 0 0 0.18371 0.163831 0.160518 0.160518 0.180345 0 0 0 0 ];
% latency change    = 1
% throughput change = 1
Traffic 1 Stat
%=================================
% Average latency = 6.13799
% Accepted packets = 0 at node 0 (avg = 0.0327247)
lat(2) = 6.13799;
thru(2,:) = [ 0 0.376334 0.376334 0 0 0 0 0 0 0 0 0 0 0 0 0 0 0 0 0 0 0 0 ];
% latency change    = 0.110926
% throughput change = 0.127884
----------------------------Interconnect-DETAILS---------------------------------=======Traffic[0]class0 ======
Traffic[0]class0Overall average latency = 6.81885 (1 samples)
Traffic[0]class0Overall average accepted rate = 0.0369096 (1 samples)
Traffic[0]class0Overall min accepted rate = 0 (1 samples)
traffic_manager/latency_stat_0_freq = [ 0 7269 6370 1478 1368 7748 2208 1878 3827 4479 3860 1755 1374 1086 1152 1036 1020 737 355 272 210 171 117 52 41 21 15 7 2 0 1 0 1 0 0 0 0 0 0 0 0 0 0 0 0 0 0 0 0 0 0 0 0 0 0 0 0 0 0 0 0 0 0 0 0 0 0 0 0 0 0 0 0 0 0 0 0 0 0 0 0 0 0 0 0 0 0 0 0 0 0 0 0 0 0 0 0 0 0 0 0 0 0 0 0 0 0 0 0 0 0 0 0 0 0 0 0 0 0 0 0 0 0 0 0 0 0 0 0 0 0 0 0 0 0 0 0 0 0 0 0 0 0 0 0 0 0 0 0 0 0 0 0 0 0 0 0 0 0 0 0 0 0 0 0 0 0 0 0 0 0 0 0 0 0 0 0 0 0 0 0 0 0 0 0 0 0 0 0 0 0 0 0 0 0 0 0 0 0 0 0 0 0 0 0 0 0 0 0 0 0 0 0 0 0 0 0 0 0 0 0 0 0 0 0 0 0 0 0 0 0 0 0 0 0 0 0 0 0 0 0 0 0 0 0 0 0 0 0 0 0 0 0 0 0 0 0 0 0 0 0 0 0 0 0 0 0 0 0 0 0 0 0 0 0 0 0 0 0 0 0 0 0 0 0 0 0 0 0 0 0 0 0 0 0 0 0 0 0 0 0 0 0 0 0 0 0 0 0 0 0 0 0 0 0 0 0 0 0 0 0 0 0 0 0 0 0 0 0 0 0 0 0 0 0 0 0 0 0 0 0 0 0 0 0 0 0 0 0 0 0 0 0 0 0 0 0 0 0 0 0 0 0 0 0 0 0 0 0 0 0 0 0 0 0 0 0 0 0 0 0 0 0 0 0 0 0 0 0 0 0 0 0 0 0 0 0 0 0 0 0 0 0 0 0 0 0 0 0 0 0 0 0 0 0 0 0 0 0 0 0 0 0 0 0 0 0 0 0 0 0 0 0 0 0 0 0 0 0 0 0 0 0 0 0 0 0 0 0 0 0 0 0 0 0 0 0 0 0 0 0 0 0 0 0 0 0 0 0 0 0 0 0 0 0 0 0 0 0 0 0 0 0 0 0 0 0 0 0 0 0 0 0 0 0 0 0 0 0 0 0 0 0 0 0 0 0 0 0 0 0 0 0 0 0 0 0 0 0 0 0 0 0 0 0 0 0 0 0 0 0 0 0 0 0 0 0 0 0 0 0 0 0 0 0 0 0 0 0 0 0 0 0 0 0 0 0 0 0 0 0 0 0 0 0 0 0 0 0 0 0 0 0 0 0 0 0 0 0 0 0 0 0 0 0 0 0 0 0 0 0 0 0 0 0 0 0 0 0 0 0 0 0 0 0 0 0 0 0 0 0 0 0 0 0 0 0 0 0 0 0 0 0 0 0 0 0 0 0 0 0 0 0 0 0 0 0 0 0 0 0 0 0 0 0 0 0 0 0 0 0 0 0 0 0 0 0 0 0 0 0 0 0 0 0 0 0 0 0 0 0 0 0 0 0 0 0 0 0 0 0 0 0 0 0 0 0 0 0 0 0 0 0 0 0 0 0 0 0 0 0 0 0 0 0 0 0 0 0 0 0 0 0 0 0 0 0 0 0 0 0 0 0 0 0 0 0 0 0 0 0 0 0 0 0 0 0 0 0 0 0 0 0 0 0 0 0 0 0 0 0 0 0 0 0 0 0 0 0 0 0 0 0 0 0 0 0 0 0 0 0 0 0 0 0 0 0 0 0 0 0 0 0 0 0 0 0 0 0 0 0 0 0 0 0 0 0 0 0 0 0 0 0 0 0 0 0 0 0 0 0 0 0 0 0 0 0 0 0 0 0 0 0 0 0 0 0 0 0 0 0 0 0 0 0 0 0 0 0 0 0 0 0 0 0 0 0 0 0 0 0 0 0 0 0 0 0 0 0 0 0 0 0 0 0 0 0 0 0 0 0 0 0 0 0 0 0 0 0 0 0 0 0 0 0 0 0 0 0 0 0 0 0 0 0 0 0 0 0 0 0 0 0 0 0 0 0 0 0 0 0 0 0 0 0 0 0 0 0 0 0 0 0 0 0 0 0 0 0 0 0 0 0 0 0 0 0 0 0 0 0 0 0 0 0 0 0 0 0 0 0 0 0 0 0 0 0 0 0 0 0 0 0 0 0 0 0 0 0 0 0 0 0 0 0 0 0 0 0 0 0 0 0 0 0 0 0 0 0 0 0 0 0 0 0 0 0 0 0 0 ];
Traffic[0]class1Average hops = 1 (49910 samples)
traffic_manager/hop_stats_freq = [ 0 49910 0 0 0 0 0 0 0 0 0 0 0 0 0 0 0 0 0 0 ];
=======Traffic[1]class0 ======
Traffic[1]class0Overall average latency = 6.13799 (1 samples)
Traffic[1]class0Overall average accepted rate = 0.0327247 (1 samples)
Traffic[1]class0Overall min accepted rate = 0 (1 samples)
traffic_manager/latency_stat_0_freq = [ 0 21045 1507 909 1476 8085 2282 1142 1640 1024 1811 935 796 765 577 710 550 475 492 362 445 324 285 282 221 226 189 156 142 122 129 94 74 87 77 75 47 50 40 38 31 28 28 17 23 18 20 10 9 3 3 10 2 3 4 3 2 1 1 0 1 5 0 0 0 0 0 1 1 0 0 0 0 0 0 0 0 0 0 0 0 0 0 0 0 0 0 0 0 0 0 0 0 0 0 0 0 0 0 0 0 0 0 0 0 0 0 0 0 0 0 0 0 0 0 0 0 0 0 0 0 0 0 0 0 0 0 0 0 0 0 0 0 0 0 0 0 0 0 0 0 0 0 0 0 0 0 0 0 0 0 0 0 0 0 0 0 0 0 0 0 0 0 0 0 0 0 0 0 0 0 0 0 0 0 0 0 0 0 0 0 0 0 0 0 0 0 0 0 0 0 0 0 0 0 0 0 0 0 0 0 0 0 0 0 0 0 0 0 0 0 0 0 0 0 0 0 0 0 0 0 0 0 0 0 0 0 0 0 0 0 0 0 0 0 0 0 0 0 0 0 0 0 0 0 0 0 0 0 0 0 0 0 0 0 0 0 0 0 0 0 0 0 0 0 0 0 0 0 0 0 0 0 0 0 0 0 0 0 0 0 0 0 0 0 0 0 0 0 0 0 0 0 0 0 0 0 0 0 0 0 0 0 0 0 0 0 0 0 0 0 0 0 0 0 0 0 0 0 0 0 0 0 0 0 0 0 0 0 0 0 0 0 0 0 0 0 0 0 0 0 0 0 0 0 0 0 0 0 0 0 0 0 0 0 0 0 0 0 0 0 0 0 0 0 0 0 0 0 0 0 0 0 0 0 0 0 0 0 0 0 0 0 0 0 0 0 0 0 0 0 0 0 0 0 0 0 0 0 0 0 0 0 0 0 0 0 0 0 0 0 0 0 0 0 0 0 0 0 0 0 0 0 0 0 0 0 0 0 0 0 0 0 0 0 0 0 0 0 0 0 0 0 0 0 0 0 0 0 0 0 0 0 0 0 0 0 0 0 0 0 0 0 0 0 0 0 0 0 0 0 0 0 0 0 0 0 0 0 0 0 0 0 0 0 0 0 0 0 0 0 0 0 0 0 0 0 0 0 0 0 0 0 0 0 0 0 0 0 0 0 0 0 0 0 0 0 0 0 0 0 0 0 0 0 0 0 0 0 0 0 0 0 0 0 0 0 0 0 0 0 0 0 0 0 0 0 0 0 0 0 0 0 0 0 0 0 0 0 0 0 0 0 0 0 0 0 0 0 0 0 0 0 0 0 0 0 0 0 0 0 0 0 0 0 0 0 0 0 0 0 0 0 0 0 0 0 0 0 0 0 0 0 0 0 0 0 0 0 0 0 0 0 0 0 0 0 0 0 0 0 0 0 0 0 0 0 0 0 0 0 0 0 0 0 0 0 0 0 0 0 0 0 0 0 0 0 0 0 0 0 0 0 0 0 0 0 0 0 0 0 0 0 0 0 0 0 0 0 0 0 0 0 0 0 0 0 0 0 0 0 0 0 0 0 0 0 0 0 0 0 0 0 0 0 0 0 0 0 0 0 0 0 0 0 0 0 0 0 0 0 0 0 0 0 0 0 0 0 0 0 0 0 0 0 0 0 0 0 0 0 0 0 0 0 0 0 0 0 0 0 0 0 0 0 0 0 0 0 0 0 0 0 0 0 0 0 0 0 0 0 0 0 0 0 0 0 0 0 0 0 0 0 0 0 0 0 0 0 0 0 0 0 0 0 0 0 0 0 0 0 0 0 0 0 0 0 0 0 0 0 0 0 0 0 0 0 0 0 0 0 0 0 0 0 0 0 0 0 0 0 0 0 0 0 0 0 0 0 0 0 0 0 0 0 0 0 0 0 0 0 0 0 0 0 0 0 0 0 0 0 0 0 0 0 0 0 0 0 0 0 0 0 0 0 0 0 0 0 0 0 0 0 0 0 0 0 0 0 0 0 0 0 0 0 0 0 0 0 0 0 0 0 0 0 0 0 0 0 0 0 0 0 0 0 0 0 0 0 0 0 0 0 0 0 0 0 0 0 0 0 0 0 0 0 0 0 0 0 0 0 0 0 0 0 0 0 0 0 0 0 0 0 0 0 0 0 0 0 0 0 0 0 0 0 0 0 0 0 0 0 0 0 0 0 0 0 0 0 0 0 0 0 0 0 0 0 0 0 0 0 0 0 0 0 0 0 0 0 0 0 0 0 0 0 0 0 0 0 0 ];
Traffic[1]class1Average hops = 1 (49910 samples)
traffic_manager/hop_stats_freq = [ 0 49910 0 0 0 0 0 0 0 0 0 0 0 0 0 0 0 0 0 0 ];
----------------------------END-of-Interconnect-DETAILS-------------------------

gpgpu_simulation_time = 0 days, 0 hrs, 0 min, 11 sec (11 sec)
gpgpu_simulation_rate = 337920 (inst/sec)
gpgpu_simulation_rate = 7093 (cycle/sec)
GPGPU-Sim: synchronize waiting for inactive GPU simulation
GPGPU-Sim API: Stream Manager State
GPGPU-Sim: detected inactive GPU simulation thread

kernel '_Z10std_kernelPfS_S_' transfer to GPU hardware scheduler
kernel_name = _Z10std_kernelPfS_S_ 
kernel_launch_uid = 2 
gpu_sim_cycle = 82451
gpu_sim_insn = 5302272
gpu_ipc =      64.3082
gpu_tot_sim_cycle = 160474
gpu_tot_sim_insn = 9019392
gpu_tot_ipc =      56.2047
gpu_tot_issued_cta = 0
gpu_stall_dramfull = 0
gpu_stall_icnt2sh    = 1528
gpu_total_sim_rate=360775
Cache L1D_000:	Size = 16384 B (32 Set x 4-way x 128 byte line)
		Access = 0, Miss = 0 (-nan), PendingHit = 0 (-nan)
Cache L1D_001:	Size = 16384 B (32 Set x 4-way x 128 byte line)
		Access = 16128, Miss = 8440 (0.523), PendingHit = 7627 (0.473)
Cache L1D_002:	Size = 16384 B (32 Set x 4-way x 128 byte line)
		Access = 16128, Miss = 8440 (0.523), PendingHit = 7677 (0.476)
Cache L1D_003:	Size = 16384 B (32 Set x 4-way x 128 byte line)
		Access = 32512, Miss = 8473 (0.261), PendingHit = 7673 (0.236)
Cache L1D_004:	Size = 16384 B (32 Set x 4-way x 128 byte line)
		Access = 32512, Miss = 8473 (0.261), PendingHit = 7666 (0.236)
Cache L1D_005:	Size = 16384 B (32 Set x 4-way x 128 byte line)
		Access = 0, Miss = 0 (-nan), PendingHit = 0 (-nan)
Cache L1D_006:	Size = 16384 B (32 Set x 4-way x 128 byte line)
		Access = 0, Miss = 0 (-nan), PendingHit = 0 (-nan)
Cache L1D_007:	Size = 16384 B (32 Set x 4-way x 128 byte line)
		Access = 0, Miss = 0 (-nan), PendingHit = 0 (-nan)
Cache L1D_008:	Size = 16384 B (32 Set x 4-way x 128 byte line)
		Access = 0, Miss = 0 (-nan), PendingHit = 0 (-nan)
Cache L1D_009:	Size = 16384 B (32 Set x 4-way x 128 byte line)
		Access = 0, Miss = 0 (-nan), PendingHit = 0 (-nan)
Cache L1D_010:	Size = 16384 B (32 Set x 4-way x 128 byte line)
		Access = 0, Miss = 0 (-nan), PendingHit = 0 (-nan)
Cache L1D_011:	Size = 16384 B (32 Set x 4-way x 128 byte line)
		Access = 0, Miss = 0 (-nan), PendingHit = 0 (-nan)
Cache L1D_012:	Size = 16384 B (32 Set x 4-way x 128 byte line)
		Access = 0, Miss = 0 (-nan), PendingHit = 0 (-nan)
Cache L1D_013:	Size = 16384 B (32 Set x 4-way x 128 byte line)
		Access = 0, Miss = 0 (-nan), PendingHit = 0 (-nan)
total_dl1_misses=33826
total_dl1_accesses=97280
total_dl1_miss_rate= 0.347718
Shader 0 dynamic_warp_id issue ditsribution:
dynamic_warp_id:

distro:

gpgpu_n_tot_thrd_icount = 9027584
gpgpu_n_tot_w_icount = 282112
gpgpu_n_icache_hits = 165632
gpgpu_n_icache_misses = 315
gpgpu_n_l1dcache_read_hits = 32811
gpgpu_n_l1dcache_read_misses = 64469
gpgpu_n_l1dcache_write_accesses = 66048
gpgpu_n_l1dcache_wirte_misses = 66048
gpgpu_n_tcache_hits = 0
gpgpu_n_tcache_misses = 0
gpgpu_n_ccache_hits = 192
gpgpu_n_ccache_misses = 128
gpgpu_n_stall_shd_mem = 92393
gpgpu_n_mem_read_local = 0
gpgpu_n_mem_write_local = 0
gpgpu_n_mem_read_global = 33826
gpgpu_n_mem_write_global = 66048
gpgpu_n_mem_texture = 0
gpgpu_n_mem_const = 4
gpgpu_n_load_insn  = 3145728
gpgpu_n_store_insn = 2113536
gpgpu_n_shmem_insn = 0
gpgpu_n_tex_insn = 0
gpgpu_n_const_mem_insn = 0
gpgpu_n_param_mem_insn = 20480
gpgpu_n_shmem_bkconflict = 0
gpgpu_n_cache_bkconflict = 0
gpgpu_n_intrawarp_mshr_merge = 0
gpgpu_n_cmem_portconflict = 0
gpgpu_stall_shd_mem[c_mem][bk_conf] = 0
gpgpu_stall_shd_mem[c_mem][mshr_rc] = 0
gpgpu_stall_shd_mem[c_mem][icnt_rc] = 0
gpgpu_stall_shd_mem[t_mem][mshr_rc] = 0
gpgpu_stall_shd_mem[t_mem][icnt_rc] = 0
gpgpu_stall_shd_mem[s_mem][bk_conf] = 0
gpgpu_stall_shd_mem[gl_mem][bk_conf] = 0
gpgpu_stall_shd_mem[gl_mem][coal_stall] = 92393
gpgpu_stall_shd_mem[g_mem_ld][mshr_rc] = 0
gpgpu_stall_shd_mem[g_mem_ld][icnt_rc] = 0
gpgpu_stall_shd_mem[g_mem_ld][wb_icnt_rc] = 0
gpgpu_stall_shd_mem[g_mem_ld][wb_rsrv_fail] = 0
gpgpu_stall_shd_mem[g_mem_st][mshr_rc] = 0
gpgpu_stall_shd_mem[g_mem_st][icnt_rc] = 0
gpgpu_stall_shd_mem[g_mem_st][wb_icnt_rc] = 0
gpgpu_stall_shd_mem[g_mem_st][wb_rsrv_fail] = 0
gpgpu_stall_shd_mem[l_mem_ld][mshr_rc] = 0
gpgpu_stall_shd_mem[l_mem_ld][icnt_rc] = 0
gpgpu_stall_shd_mem[l_mem_ld][wb_icnt_rc] = 0
gpgpu_stall_shd_mem[l_mem_ld][wb_rsrv_fail] = 0
gpgpu_stall_shd_mem[l_mem_st][mshr_rc] = 0
gpgpu_stall_shd_mem[l_mem_st][icnt_rc] = 0
gpgpu_stall_shd_mem[l_mem_ld][wb_icnt_rc] = 0
gpgpu_stall_shd_mem[l_mem_ld][wb_rsrv_fail] = 0
gpu_reg_bank_conflict_stalls = 0
Warp Occupancy Distribution:
Stall:15252	W0_Idle:4881	W0_Scoreboard:339285	W1:0	W2:0	W3:0	W4:0	W5:0	W6:0	W7:0	W8:0	W9:0	W10:0	W11:0	W12:0	W13:0	W14:0	W15:0	W16:0	W17:0	W18:0	W19:0	W20:0	W21:0	W22:0	W23:0	W24:0	W25:0	W26:0	W27:0	W28:0	W29:0	W30:0	W31:0	W32:282112
maxmrqlatency = 178 
maxdqlatency = 0 
maxmflatency = 527 
averagemflatency = 170 
max_icnt2mem_latency = 28 
max_icnt2sh_latency = 160473 
mrq_lat_table:23801 	5114 	1798 	1204 	947 	112 	130 	138 	0 	0 	0 	0 	0 	0 	0 	0 	0 	0 	0 	0 	0 	0 	0 	0 	0 	0 	0 	0 	0 	0 	0 	0 	
dq_lat_table:0 	0 	0 	0 	0 	0 	0 	0 	0 	0 	0 	0 	0 	0 	0 	0 	0 	0 	0 	0 	0 	0 	0 	0 	0 	0 	0 	0 	0 	0 	0 	0 	
mf_lat_table:0 	0 	0 	0 	0 	0 	26933 	67055 	5872 	18 	0 	0 	0 	0 	0 	0 	0 	0 	0 	0 	0 	0 	0 	0 	0 	0 	0 	0 	0 	0 	0 	0 	
icnt2mem_lat_table:3 	41310 	43232 	13476 	1867 	0 	0 	0 	0 	0 	0 	0 	0 	0 	0 	0 	0 	0 	0 	0 	0 	0 	0 	0 	
icnt2sh_lat_table:0 	20626 	9444 	3263 	495 	2 	0 	0 	0 	44 	351 	848 	1768 	3506 	7019 	14054 	26420 	12038 	0 	0 	0 	0 	0 	0 	
mf_lat_pw_table:0 	0 	0 	0 	0 	0 	1 	315 	3 	0 	0 	0 	0 	0 	0 	0 	0 	0 	0 	0 	0 	0 	0 	0 	0 	0 	0 	0 	0 	0 	0 	0 	
maximum concurrent accesses to same row:
dram[0]:        32        32        32        32        32        32        32        36        32        32        32        32        32        32        32        32 
dram[1]:        32        32        32        32        32        32        32        41        32        32        32        32        32        32        32        32 
dram[2]:        32        32        32        32        32        32        32        42        32        32        32        32        32        32        32        32 
dram[3]:        32        32        32        32        32        32        32        38        32        32        32        32        32        32        32        32 
dram[4]:        32        32        32        32        32        32        32        36        32        32        32        32        32        32        32        32 
maximum service time to same row:
dram[0]:     12664     12633     12618     12657     12625     12652     12600     12618     12615     12649     12806     12669     12624     12620     12628     12627 
dram[1]:     12613     12650     12625     12684     12631     12637     12637     12613     12661     12621     12845     12741     12666     12707     12607     12683 
dram[2]:     12634     12626     12649     12646     12656     12665     12613     12641     12610     12633     12988     12664     12668     12656     12656     12631 
dram[3]:     12618     12657     12630     12653     12644     12638     12632     12638     12605     12660     12930     12649     12635     12669     12636     12684 
dram[4]:     12607     12672     12598     12689     12610     12652     12616     12664     12600     12688     12880     12675     12645     12663     12632     12659 
average row accesses per activate:
dram[0]: 28.000000 32.000000 32.000000 32.000000 32.000000 32.000000 32.000000 30.133333 25.500000 32.000000 32.000000 32.000000 32.000000 32.000000 32.000000 32.000000 
dram[1]: 27.733334 32.000000 32.000000 32.000000 32.000000 32.000000 32.000000 30.466667 25.187500 32.000000 32.000000 32.000000 32.000000 32.000000 32.000000 32.000000 
dram[2]: 27.533333 32.000000 32.000000 32.000000 32.000000 32.000000 32.000000 30.533333 25.000000 32.000000 32.000000 32.000000 32.000000 32.000000 32.000000 32.000000 
dram[3]: 29.428572 32.000000 32.000000 32.000000 32.000000 32.000000 32.000000 30.266666 25.000000 32.000000 32.000000 32.000000 32.000000 32.000000 32.000000 32.000000 
dram[4]: 29.428572 32.000000 32.000000 32.000000 32.000000 32.000000 32.000000 30.600000 26.666666 32.000000 32.000000 32.000000 32.000000 32.000000 32.000000 32.000000 
average row locality = 33244/1067 = 31.156513
number of total memory accesses made:
dram[0]:         0         0         0         0         0         0         0         0         0         0         0         0         0         0         0         0 
dram[1]:         0         0         0         0         0         0         0         0         0         0         0         0         0         0         0         0 
dram[2]:         0         0         0         0         0         0         0         0         0         0         0         0         0         0         0         0 
dram[3]:         0         0         0         0         0         0         0         0         0         0         0         0         0         0         0         0 
dram[4]:         0         0         0         0         0         0         0         0         0         0         0         0         0         0         0         0 
total accesses: 0
min_bank_accesses = 0!
min_chip_accesses = 0!
number of total read accesses:
dram[0]:       420       384       384       384       384       384       384       404       390       384       448       448       448       448       448       448 
dram[1]:       416       384       384       384       384       384       384       406       389       384       448       448       448       448       448       448 
dram[2]:       413       384       384       384       384       384       384       406       388       384       448       448       448       448       448       448 
dram[3]:       412       384       384       384       384       384       384       405       388       384       448       448       448       448       448       448 
dram[4]:       412       384       384       384       384       384       384       406       388       384       448       448       448       448       448       448 
total reads: 32923
bank skew: 448/384 = 1.17
chip skew: 6590/6581 = 1.00
number of total write accesses:
dram[0]:         0         0         0         0         0         0         0        48        18         0         0         0         0         0         0         0 
dram[1]:         0         0         0         0         0         0         0        51        14         0         0         0         0         0         0         0 
dram[2]:         0         0         0         0         0         0         0        52        12         0         0         0         0         0         0         0 
dram[3]:         0         0         0         0         0         0         0        49        12         0         0         0         0         0         0         0 
dram[4]:         0         0         0         0         0         0         0        53        12         0         0         0         0         0         0         0 
total reads: 321
min_bank_accesses = 0!
chip skew: 66/61 = 1.08
average mf latency per bank:
dram[0]:        255       255       254       255       255       255       253      3192      1247       254       255       256       254       254       254       254
dram[1]:        252       254       256       253       254       254       254      3383      1004       255       256       255       255       254       254       254
dram[2]:        253       254       255       254       254       255       254      3446       923       254       255       256       255       254       254       254
dram[3]:        254       255       256       254       254       255       253      3248       922       252       256       255       254       254       254       255
dram[4]:        254       254       254       254       254       255       254      3365       926       254       256       256       254       254       254       254
maximum mf latency per bank:
dram[0]:        276       279       287       277       286       286       294       497       379       294       299       313       281       287       274       276
dram[1]:        282       274       290       284       285       283       286       527       319       284       313       287       284       280       278       282
dram[2]:        280       274       283       277       285       276       294       516       319       289       316       287       280       290       278       279
dram[3]:        290       277       281       277       278       279       284       501       313       272       292       290       278       281       281       282
dram[4]:        274       273       280       273       273       285       277       509       318       285       313       291       290       288       277       276

Number of Memory Banks Accessed per Memory Operation per Warp (from 0):
0	0	0	0	0	0	0	0	0	0	0	0	0	0	0	0	0	0	0	0	0	0	0	0	0	0	0	0	0	0	0	0	0	0	0	0	0	0	0	0	0	0	0	0	0	0	0	0	0	0	0	0	0	0	0	0	0	0	0	0	0	0	0	0	0	0	0	0	0	0	0	0	0	0	0	0	0	0	0	0	
Average # of Memory Banks Accessed per Memory Operation per Warp=-nan

position of mrq chosen
0	0	0	0	0	0	0	0	0	0	0	0	0	0	0	0	

average position of mrq chosen = -nan
gpgpu_l2_write_miss = 0
gpgpu_l2_write_access = 0
gpgpu_l2_read_miss = 0
gpgpu_l2_read_access = 0
Cache L2_bank_000:
MSHR contents

DRAM[0]: 16 bks, busW=4 BL=8 CL=12, tRRD=2 tCCD=6, tRCD=12 tRAS=28 tRP=12 tRC=40
n_cmd=200591 n_nop=186891 n_act=215 n_pre=199 n_req=6656 n_rd=13180 n_write=106 bw_util=0.1325
n_activity=75429 dram_eff=0.3523
bk0: 840a 198860i bk1: 768a 198922i bk2: 768a 198727i bk3: 768a 198771i bk4: 768a 198636i bk5: 768a 198632i bk6: 768a 198577i bk7: 808a 198648i bk8: 780a 198486i bk9: 768a 198554i bk10: 896a 198440i bk11: 896a 198383i bk12: 896a 198335i bk13: 896a 198182i bk14: 896a 197864i bk15: 896a 193984i 
dram_util_bins: 0 0 0 0 0 0 0 0 0 0
dram_eff_bins: 0 0 0 0 0 0 0 0 0 0
mrqq: max=16 avg=0.110718
Cache L2_bank_001:
MSHR contents

DRAM[1]: 16 bks, busW=4 BL=8 CL=12, tRRD=2 tCCD=6, tRCD=12 tRAS=28 tRP=12 tRC=40
n_cmd=200591 n_nop=186901 n_act=214 n_pre=198 n_req=6652 n_rd=13174 n_write=104 bw_util=0.1324
n_activity=75083 dram_eff=0.3537
bk0: 832a 198938i bk1: 768a 198959i bk2: 768a 198692i bk3: 768a 198708i bk4: 768a 198627i bk5: 768a 198649i bk6: 768a 198556i bk7: 812a 198651i bk8: 778a 198575i bk9: 768a 198551i bk10: 896a 198462i bk11: 896a 198508i bk12: 896a 198226i bk13: 896a 198091i bk14: 896a 197633i bk15: 896a 194163i 
dram_util_bins: 0 0 0 0 0 0 0 0 0 0
dram_eff_bins: 0 0 0 0 0 0 0 0 0 0
mrqq: max=16 avg=0.109576
Cache L2_bank_002:
MSHR contents

DRAM[2]: 16 bks, busW=4 BL=8 CL=12, tRRD=2 tCCD=6, tRCD=12 tRAS=28 tRP=12 tRC=40
n_cmd=200591 n_nop=186911 n_act=214 n_pre=198 n_req=6647 n_rd=13166 n_write=102 bw_util=0.1323
n_activity=75157 dram_eff=0.3531
bk0: 826a 198971i bk1: 768a 198937i bk2: 768a 198806i bk3: 768a 198769i bk4: 768a 198559i bk5: 768a 198640i bk6: 768a 198543i bk7: 812a 198607i bk8: 776a 198521i bk9: 768a 198611i bk10: 896a 198487i bk11: 896a 198440i bk12: 896a 198244i bk13: 896a 198050i bk14: 896a 197783i bk15: 896a 194011i 
dram_util_bins: 0 0 0 0 0 0 0 0 0 0
dram_eff_bins: 0 0 0 0 0 0 0 0 0 0
mrqq: max=16 avg=0.109671
Cache L2_bank_003:
MSHR contents

DRAM[3]: 16 bks, busW=4 BL=8 CL=12, tRRD=2 tCCD=6, tRCD=12 tRAS=28 tRP=12 tRC=40
n_cmd=200591 n_nop=186922 n_act=213 n_pre=197 n_req=6642 n_rd=13162 n_write=97 bw_util=0.1322
n_activity=74869 dram_eff=0.3542
bk0: 824a 199008i bk1: 768a 199030i bk2: 768a 198845i bk3: 768a 198769i bk4: 768a 198673i bk5: 768a 198633i bk6: 768a 198522i bk7: 810a 198608i bk8: 776a 198532i bk9: 768a 198628i bk10: 896a 198455i bk11: 896a 198593i bk12: 896a 198254i bk13: 896a 198018i bk14: 896a 197660i bk15: 896a 193918i 
dram_util_bins: 0 0 0 0 0 0 0 0 0 0
dram_eff_bins: 0 0 0 0 0 0 0 0 0 0
mrqq: max=16 avg=0.106934
Cache L2_bank_004:
MSHR contents

DRAM[4]: 16 bks, busW=4 BL=8 CL=12, tRRD=2 tCCD=6, tRCD=12 tRAS=28 tRP=12 tRC=40
n_cmd=200591 n_nop=186914 n_act=212 n_pre=196 n_req=6647 n_rd=13164 n_write=105 bw_util=0.1323
n_activity=75240 dram_eff=0.3527
bk0: 824a 199008i bk1: 768a 199033i bk2: 768a 198841i bk3: 768a 198825i bk4: 768a 198682i bk5: 768a 198706i bk6: 768a 198596i bk7: 812a 198670i bk8: 776a 198527i bk9: 768a 198511i bk10: 896a 198454i bk11: 896a 198485i bk12: 896a 198266i bk13: 896a 197984i bk14: 896a 197641i bk15: 896a 193829i 
dram_util_bins: 0 0 0 0 0 0 0 0 0 0
dram_eff_bins: 0 0 0 0 0 0 0 0 0 0
mrqq: max=16 avg=0.112787
Cache L2_bank_000:	Size = 131072 B (64 Set x 16-way x 128 byte line)
		Access = 20193, Miss = 6590 (0.326), PendingHit = 183 (0.00906)
Cache L2_bank_001:	Size = 131072 B (64 Set x 16-way x 128 byte line)
		Access = 20187, Miss = 6587 (0.326), PendingHit = 183 (0.00907)
Cache L2_bank_002:	Size = 131072 B (64 Set x 16-way x 128 byte line)
		Access = 20182, Miss = 6583 (0.326), PendingHit = 182 (0.00902)
Cache L2_bank_003:	Size = 131072 B (64 Set x 16-way x 128 byte line)
		Access = 19406, Miss = 6581 (0.339), PendingHit = 180 (0.00928)
Cache L2_bank_004:	Size = 131072 B (64 Set x 16-way x 128 byte line)
		Access = 19920, Miss = 6582 (0.33), PendingHit = 177 (0.00889)
L2 Cache Total Miss Rate = 0.330

icnt_total_pkts_mem_to_simt=235240
icnt_total_pkts_simt_to_mem=265008

LD_mem_lat_dist  0 0 0 0 0 0 0 0 0 0 0 0 0 0 0 0 0 0 0 0 0 0 0 0 0 0 0
ST_mem_lat_dist  0 0 0 0 0 0 0 0 0 0 0 0 0 0 0 0 0 0 0 0 0 0 0 0 0 0 0
Traffic 0 Stat
%=================================
% Average latency = 4.3617
% Accepted packets = 0 at node 0 (avg = 0.0349453)
lat(3) = 4.3617;
thru(3,:) = [ 0 0 0 0 0 0 0 0 0 0 0 0 0 0 0.152006 0.170781 0.173886 0.155099 0.15197 0 0 0 0 ];
% latency change    = 0.407247
% throughput change = 0.0635469
Traffic 1 Stat
%=================================
% Average latency = 3.85554
% Accepted packets = 0 at node 0 (avg = 0.0310568)
lat(4) = 3.85554;
thru(4,:) = [ 0 0 0 0.357154 0.357154 0 0 0 0 0 0 0 0 0 0 0 0 0 0 0 0 0 0 ];
% latency change    = 0.131282
% throughput change = 0.125206
----------------------------Interconnect-DETAILS---------------------------------=======Traffic[0]class0 ======
Traffic[0]class0Overall average latency = 5.59028 (2 samples)
Traffic[0]class0Overall average accepted rate = 0.0359275 (2 samples)
Traffic[0]class0Overall min accepted rate = 0 (2 samples)
traffic_manager/latency_stat_0_freq = [ 0 12039 10275 1892 1677 11382 2224 1526 3126 1671 1312 651 542 478 325 252 228 154 62 51 42 35 18 9 2 3 2 0 0 0 0 0 0 0 0 0 0 0 0 0 0 0 0 0 0 0 0 0 0 0 0 0 0 0 0 0 0 0 0 0 0 0 0 0 0 0 0 0 0 0 0 0 0 0 0 0 0 0 0 0 0 0 0 0 0 0 0 0 0 0 0 0 0 0 0 0 0 0 0 0 0 0 0 0 0 0 0 0 0 0 0 0 0 0 0 0 0 0 0 0 0 0 0 0 0 0 0 0 0 0 0 0 0 0 0 0 0 0 0 0 0 0 0 0 0 0 0 0 0 0 0 0 0 0 0 0 0 0 0 0 0 0 0 0 0 0 0 0 0 0 0 0 0 0 0 0 0 0 0 0 0 0 0 0 0 0 0 0 0 0 0 0 0 0 0 0 0 0 0 0 0 0 0 0 0 0 0 0 0 0 0 0 0 0 0 0 0 0 0 0 0 0 0 0 0 0 0 0 0 0 0 0 0 0 0 0 0 0 0 0 0 0 0 0 0 0 0 0 0 0 0 0 0 0 0 0 0 0 0 0 0 0 0 0 0 0 0 0 0 0 0 0 0 0 0 0 0 0 0 0 0 0 0 0 0 0 0 0 0 0 0 0 0 0 0 0 0 0 0 0 0 0 0 0 0 0 0 0 0 0 0 0 0 0 0 0 0 0 0 0 0 0 0 0 0 0 0 0 0 0 0 0 0 0 0 0 0 0 0 0 0 0 0 0 0 0 0 0 0 0 0 0 0 0 0 0 0 0 0 0 0 0 0 0 0 0 0 0 0 0 0 0 0 0 0 0 0 0 0 0 0 0 0 0 0 0 0 0 0 0 0 0 0 0 0 0 0 0 0 0 0 0 0 0 0 0 0 0 0 0 0 0 0 0 0 0 0 0 0 0 0 0 0 0 0 0 0 0 0 0 0 0 0 0 0 0 0 0 0 0 0 0 0 0 0 0 0 0 0 0 0 0 0 0 0 0 0 0 0 0 0 0 0 0 0 0 0 0 0 0 0 0 0 0 0 0 0 0 0 0 0 0 0 0 0 0 0 0 0 0 0 0 0 0 0 0 0 0 0 0 0 0 0 0 0 0 0 0 0 0 0 0 0 0 0 0 0 0 0 0 0 0 0 0 0 0 0 0 0 0 0 0 0 0 0 0 0 0 0 0 0 0 0 0 0 0 0 0 0 0 0 0 0 0 0 0 0 0 0 0 0 0 0 0 0 0 0 0 0 0 0 0 0 0 0 0 0 0 0 0 0 0 0 0 0 0 0 0 0 0 0 0 0 0 0 0 0 0 0 0 0 0 0 0 0 0 0 0 0 0 0 0 0 0 0 0 0 0 0 0 0 0 0 0 0 0 0 0 0 0 0 0 0 0 0 0 0 0 0 0 0 0 0 0 0 0 0 0 0 0 0 0 0 0 0 0 0 0 0 0 0 0 0 0 0 0 0 0 0 0 0 0 0 0 0 0 0 0 0 0 0 0 0 0 0 0 0 0 0 0 0 0 0 0 0 0 0 0 0 0 0 0 0 0 0 0 0 0 0 0 0 0 0 0 0 0 0 0 0 0 0 0 0 0 0 0 0 0 0 0 0 0 0 0 0 0 0 0 0 0 0 0 0 0 0 0 0 0 0 0 0 0 0 0 0 0 0 0 0 0 0 0 0 0 0 0 0 0 0 0 0 0 0 0 0 0 0 0 0 0 0 0 0 0 0 0 0 0 0 0 0 0 0 0 0 0 0 0 0 0 0 0 0 0 0 0 0 0 0 0 0 0 0 0 0 0 0 0 0 0 0 0 0 0 0 0 0 0 0 0 0 0 0 0 0 0 0 0 0 0 0 0 0 0 0 0 0 0 0 0 0 0 0 0 0 0 0 0 0 0 0 0 0 0 0 0 0 0 0 0 0 0 0 0 0 0 0 0 0 0 0 0 0 0 0 0 0 0 0 0 0 0 0 0 0 0 0 0 0 0 0 0 0 0 0 0 0 0 0 0 0 0 0 0 0 0 0 0 0 0 0 0 0 0 0 0 0 0 0 0 0 0 0 0 0 0 0 0 0 0 0 0 0 0 0 0 0 0 0 0 0 0 0 0 0 0 0 0 0 0 0 0 0 0 0 0 0 0 0 0 0 0 0 0 0 0 0 0 0 0 0 0 0 0 0 0 0 0 0 0 0 0 0 0 0 0 0 0 0 0 ];
Traffic[0]class1Average hops = 1 (99888 samples)
traffic_manager/hop_stats_freq = [ 0 99888 0 0 0 0 0 0 0 0 0 0 0 0 0 0 0 0 0 0 ];
=======Traffic[1]class0 ======
Traffic[1]class0Overall average latency = 4.99676 (2 samples)
Traffic[1]class0Overall average accepted rate = 0.0318908 (2 samples)
Traffic[1]class0Overall min accepted rate = 0 (2 samples)
traffic_manager/latency_stat_0_freq = [ 0 21359 2148 1152 2247 12938 3091 1120 1728 967 1352 545 334 240 176 141 100 64 46 25 31 28 18 9 10 6 10 5 7 6 4 13 8 3 5 2 3 7 1 3 1 6 2 1 1 3 1 3 5 1 0 1 1 0 0 0 0 0 0 0 0 0 0 0 0 0 0 0 0 0 0 0 0 0 0 0 0 0 0 0 0 0 0 0 0 0 0 0 0 0 0 0 0 0 0 0 0 0 0 0 0 0 0 0 0 0 0 0 0 0 0 0 0 0 0 0 0 0 0 0 0 0 0 0 0 0 0 0 0 0 0 0 0 0 0 0 0 0 0 0 0 0 0 0 0 0 0 0 0 0 0 0 0 0 0 0 0 0 0 0 0 0 0 0 0 0 0 0 0 0 0 0 0 0 0 0 0 0 0 0 0 0 0 0 0 0 0 0 0 0 0 0 0 0 0 0 0 0 0 0 0 0 0 0 0 0 0 0 0 0 0 0 0 0 0 0 0 0 0 0 0 0 0 0 0 0 0 0 0 0 0 0 0 0 0 0 0 0 0 0 0 0 0 0 0 0 0 0 0 0 0 0 0 0 0 0 0 0 0 0 0 0 0 0 0 0 0 0 0 0 0 0 0 0 0 0 0 0 0 0 0 0 0 0 0 0 0 0 0 0 0 0 0 0 0 0 0 0 0 0 0 0 0 0 0 0 0 0 0 0 0 0 0 0 0 0 0 0 0 0 0 0 0 0 0 0 0 0 0 0 0 0 0 0 0 0 0 0 0 0 0 0 0 0 0 0 0 0 0 0 0 0 0 0 0 0 0 0 0 0 0 0 0 0 0 0 0 0 0 0 0 0 0 0 0 0 0 0 0 0 0 0 0 0 0 0 0 0 0 0 0 0 0 0 0 0 0 0 0 0 0 0 0 0 0 0 0 0 0 0 0 0 0 0 0 0 0 0 0 0 0 0 0 0 0 0 0 0 0 0 0 0 0 0 0 0 0 0 0 0 0 0 0 0 0 0 0 0 0 0 0 0 0 0 0 0 0 0 0 0 0 0 0 0 0 0 0 0 0 0 0 0 0 0 0 0 0 0 0 0 0 0 0 0 0 0 0 0 0 0 0 0 0 0 0 0 0 0 0 0 0 0 0 0 0 0 0 0 0 0 0 0 0 0 0 0 0 0 0 0 0 0 0 0 0 0 0 0 0 0 0 0 0 0 0 0 0 0 0 0 0 0 0 0 0 0 0 0 0 0 0 0 0 0 0 0 0 0 0 0 0 0 0 0 0 0 0 0 0 0 0 0 0 0 0 0 0 0 0 0 0 0 0 0 0 0 0 0 0 0 0 0 0 0 0 0 0 0 0 0 0 0 0 0 0 0 0 0 0 0 0 0 0 0 0 0 0 0 0 0 0 0 0 0 0 0 0 0 0 0 0 0 0 0 0 0 0 0 0 0 0 0 0 0 0 0 0 0 0 0 0 0 0 0 0 0 0 0 0 0 0 0 0 0 0 0 0 0 0 0 0 0 0 0 0 0 0 0 0 0 0 0 0 0 0 0 0 0 0 0 0 0 0 0 0 0 0 0 0 0 0 0 0 0 0 0 0 0 0 0 0 0 0 0 0 0 0 0 0 0 0 0 0 0 0 0 0 0 0 0 0 0 0 0 0 0 0 0 0 0 0 0 0 0 0 0 0 0 0 0 0 0 0 0 0 0 0 0 0 0 0 0 0 0 0 0 0 0 0 0 0 0 0 0 0 0 0 0 0 0 0 0 0 0 0 0 0 0 0 0 0 0 0 0 0 0 0 0 0 0 0 0 0 0 0 0 0 0 0 0 0 0 0 0 0 0 0 0 0 0 0 0 0 0 0 0 0 0 0 0 0 0 0 0 0 0 0 0 0 0 0 0 0 0 0 0 0 0 0 0 0 0 0 0 0 0 0 0 0 0 0 0 0 0 0 0 0 0 0 0 0 0 0 0 0 0 0 0 0 0 0 0 0 0 0 0 0 0 0 0 0 0 0 0 0 0 0 0 0 0 0 0 0 0 0 0 0 0 0 0 0 0 0 0 0 0 0 0 0 0 0 0 0 0 0 0 0 0 0 0 0 0 0 0 0 0 0 0 0 0 0 0 0 0 0 0 0 0 0 0 0 0 0 0 0 0 0 0 0 0 0 0 0 0 0 0 0 0 0 0 0 0 0 0 0 0 0 0 0 0 0 0 0 0 0 0 0 0 0 0 0 0 0 0 0 0 0 0 0 0 ];
Traffic[1]class1Average hops = 1 (99888 samples)
traffic_manager/hop_stats_freq = [ 0 99888 0 0 0 0 0 0 0 0 0 0 0 0 0 0 0 0 0 0 ];
----------------------------END-of-Interconnect-DETAILS-------------------------

gpgpu_simulation_time = 0 days, 0 hrs, 0 min, 25 sec (25 sec)
gpgpu_simulation_rate = 360775 (inst/sec)
gpgpu_simulation_rate = 6418 (cycle/sec)
GPGPU-Sim: synchronize waiting for inactive GPU simulation
GPGPU-Sim API: Stream Manager State
GPGPU-Sim: detected inactive GPU simulation thread

kernel '_Z13reduce_kernelPfS_S_' transfer to GPU hardware scheduler
kernel_name = _Z13reduce_kernelPfS_S_ 
kernel_launch_uid = 3 
gpu_sim_cycle = 31223
gpu_sim_insn = 18612224
gpu_ipc =     596.1062
gpu_tot_sim_cycle = 191697
gpu_tot_sim_insn = 27631616
gpu_tot_ipc =     144.1421
gpu_tot_issued_cta = 0
gpu_stall_dramfull = 6894
gpu_stall_icnt2sh    = 4639
gpu_total_sim_rate=412412
Cache L1D_000:	Size = 16384 B (32 Set x 4-way x 128 byte line)
		Access = 768, Miss = 163 (0.212), PendingHit = 164 (0.214)
Cache L1D_001:	Size = 16384 B (32 Set x 4-way x 128 byte line)
		Access = 17088, Miss = 8645 (0.506), PendingHit = 7822 (0.458)
Cache L1D_002:	Size = 16384 B (32 Set x 4-way x 128 byte line)
		Access = 16896, Miss = 8602 (0.509), PendingHit = 7859 (0.465)
Cache L1D_003:	Size = 16384 B (32 Set x 4-way x 128 byte line)
		Access = 33464, Miss = 8665 (0.259), PendingHit = 7814 (0.234)
Cache L1D_004:	Size = 16384 B (32 Set x 4-way x 128 byte line)
		Access = 33472, Miss = 8671 (0.259), PendingHit = 7869 (0.235)
Cache L1D_005:	Size = 16384 B (32 Set x 4-way x 128 byte line)
		Access = 952, Miss = 197 (0.207), PendingHit = 200 (0.21)
Cache L1D_006:	Size = 16384 B (32 Set x 4-way x 128 byte line)
		Access = 768, Miss = 162 (0.211), PendingHit = 177 (0.23)
Cache L1D_007:	Size = 16384 B (32 Set x 4-way x 128 byte line)
		Access = 768, Miss = 162 (0.211), PendingHit = 178 (0.232)
Cache L1D_008:	Size = 16384 B (32 Set x 4-way x 128 byte line)
		Access = 952, Miss = 197 (0.207), PendingHit = 199 (0.209)
Cache L1D_009:	Size = 16384 B (32 Set x 4-way x 128 byte line)
		Access = 768, Miss = 162 (0.211), PendingHit = 176 (0.229)
Cache L1D_010:	Size = 16384 B (32 Set x 4-way x 128 byte line)
		Access = 952, Miss = 197 (0.207), PendingHit = 191 (0.201)
Cache L1D_011:	Size = 16384 B (32 Set x 4-way x 128 byte line)
		Access = 760, Miss = 162 (0.213), PendingHit = 177 (0.233)
Cache L1D_012:	Size = 16384 B (32 Set x 4-way x 128 byte line)
		Access = 944, Miss = 196 (0.208), PendingHit = 195 (0.207)
Cache L1D_013:	Size = 16384 B (32 Set x 4-way x 128 byte line)
		Access = 952, Miss = 197 (0.207), PendingHit = 199 (0.209)
total_dl1_misses=36378
total_dl1_accesses=109504
total_dl1_miss_rate= 0.332207
Shader 0 dynamic_warp_id issue ditsribution:
dynamic_warp_id:
0, 1, 2, 3, 4, 5, 6, 7, 8, 9, 10, 11, 12, 13, 14, 15, 16, 17, 18, 19, 20, 21, 22, 23, 24, 25, 26, 27, 28, 29, 30, 31, 32, 33, 34, 35, 36, 37, 38, 39, 40, 41, 42, 43, 44, 45, 46, 47, 48, 49, 50, 51, 52, 53, 54, 55, 56, 57, 58, 59, 60, 61, 62, 63, 64, 65, 66, 67, 68, 69, 70, 71, 72, 73, 74, 75, 76, 77, 78, 79, 80, 81, 82, 83, 84, 85, 86, 87, 88, 89, 90, 91, 92, 93, 94, 95, 96, 97, 98, 99, 100, 101, 102, 103, 104, 105, 106, 107, 108, 109, 110, 111, 112, 113, 114, 115, 116, 117, 118, 119, 120, 121, 122, 123, 124, 125, 126, 127, 128, 129, 130, 131, 132, 133, 134, 135, 136, 137, 138, 139, 140, 141, 142, 143, 144, 145, 146, 147, 148, 149, 150, 151, 152, 153, 154, 155, 156, 157, 158, 159, 160, 161, 162, 163, 164, 165, 166, 167, 168, 169, 170, 171, 172, 173, 174, 175, 176, 177, 178, 179, 180, 181, 182, 183, 184, 185, 186, 187, 188, 189, 190, 191, 192, 193, 194, 195, 196, 197, 198, 199, 200, 201, 202, 203, 204, 205, 206, 207, 208, 209, 210, 211, 212, 213, 214, 215, 216, 217, 218, 219, 220, 221, 222, 223, 224, 225, 226, 227, 228, 229, 230, 231, 232, 233, 234, 235, 236, 237, 238, 239, 240, 241, 242, 243, 244, 245, 246, 247, 248, 249, 250, 251, 252, 253, 254, 255, 256, 257, 258, 259, 260, 261, 262, 263, 264, 265, 266, 267, 268, 269, 270, 271, 272, 273, 274, 275, 276, 277, 278, 279, 280, 281, 282, 283, 284, 285, 286, 287, 288, 289, 290, 291, 292, 293, 294, 295, 296, 297, 298, 299, 300, 301, 302, 303, 304, 305, 306, 307, 308, 309, 310, 311, 312, 313, 314, 315, 316, 317, 318, 319, 320, 321, 322, 323, 324, 325, 326, 327, 328, 329, 330, 331, 332, 333, 334, 335, 336, 337, 338, 339, 340, 341, 342, 343, 344, 345, 346, 347, 348, 349, 350, 351, 352, 353, 354, 355, 356, 357, 358, 359, 360, 361, 362, 363, 364, 365, 366, 367, 368, 369, 370, 371, 372, 373, 374, 375, 376, 377, 378, 379, 380, 381, 382, 383, 384, 385, 386, 387, 388, 389, 390, 391, 392, 393, 394, 395, 396, 397, 398, 399, 400, 401, 402, 403, 404, 405, 406, 407, 408, 409, 410, 411, 412, 413, 414, 415, 416, 417, 418, 419, 420, 421, 422, 423, 424, 425, 426, 427, 428, 429, 430, 431, 432, 433, 434, 435, 436, 437, 438, 439, 440, 441, 442, 443, 444, 445, 446, 447, 448, 449, 450, 451, 452, 453, 454, 455, 456, 457, 458, 459, 460, 461, 462, 463, 464, 465, 466, 467, 468, 469, 470, 471, 472, 473, 474, 475, 476, 477, 478, 479, 480, 481, 482, 483, 484, 485, 486, 487, 488, 489, 490, 491, 492, 493, 494, 495, 496, 497, 498, 499, 500, 501, 502, 503, 504, 505, 506, 507, 508, 509, 510, 511, 512, 513, 514, 515, 516, 517, 518, 519, 520, 521, 522, 523, 524, 525, 526, 527, 528, 529, 530, 531, 532, 533, 534, 535, 536, 537, 538, 539, 540, 541, 542, 543, 544, 545, 546, 547, 548, 549, 550, 551, 552, 553, 554, 555, 556, 557, 558, 559, 560, 561, 562, 563, 564, 565, 566, 567, 568, 569, 570, 571, 572, 573, 574, 575, 576, 577, 578, 579, 580, 581, 582, 583, 584, 585, 586, 587, 588, 589, 590, 591, 592, 593, 594, 595, 596, 597, 598, 599, 600, 601, 602, 603, 604, 605, 606, 607, 608, 609, 610, 611, 612, 613, 614, 615, 616, 617, 618, 619, 620, 621, 622, 623, 624, 625, 626, 627, 628, 629, 630, 631, 632, 633, 634, 635, 636, 637, 638, 639, 640, 641, 642, 643, 644, 645, 646, 647, 648, 649, 650, 651, 652, 653, 654, 655, 656, 657, 658, 659, 660, 661, 662, 663, 664, 665, 666, 667, 668, 669, 670, 671, 672, 673, 674, 675, 676, 677, 678, 679, 680, 681, 682, 683, 684, 685, 686, 687, 688, 689, 690, 691, 692, 693, 694, 695, 696, 697, 698, 699, 700, 701, 702, 703, 704, 705, 706, 707, 708, 709, 710, 711, 712, 713, 714, 715, 716, 717, 718, 719, 720, 721, 722, 723, 724, 725, 726, 727, 728, 729, 730, 731, 732, 733, 734, 735, 736, 737, 738, 739, 740, 741, 742, 743, 744, 745, 746, 747, 748, 749, 750, 751, 752, 753, 754, 755, 756, 757, 758, 759, 760, 761, 762, 763, 764, 765, 766, 767, 768, 769, 770, 771, 772, 773, 774, 775, 776, 777, 778, 779, 780, 781, 782, 783, 784, 785, 786, 787, 788, 789, 790, 791, 792, 793, 794, 795, 796, 797, 798, 799, 800, 801, 802, 803, 804, 805, 806, 807, 808, 809, 810, 811, 812, 813, 814, 815, 816, 817, 818, 819, 820, 821, 822, 823, 824, 825, 826, 827, 828, 829, 830, 831, 832, 833, 834, 835, 836, 837, 838, 839, 840, 841, 842, 843, 844, 845, 846, 847, 848, 849, 850, 851, 852, 853, 854, 855, 856, 857, 858, 859, 860, 861, 862, 863, 864, 865, 866, 867, 868, 869, 870, 871, 872, 873, 874, 875, 876, 877, 878, 879, 880, 881, 882, 883, 884, 885, 886, 887, 888, 889, 890, 891, 892, 893, 894, 895, 896, 897, 898, 899, 900, 901, 902, 903, 904, 905, 906, 907, 908, 909, 910, 911, 912, 913, 914, 915, 916, 917, 918, 919, 920, 921, 922, 923, 924, 925, 926, 927, 928, 929, 930, 931, 932, 933, 934, 935, 936, 937, 938, 939, 940, 941, 942, 943, 944, 945, 946, 947, 948, 949, 950, 951, 952, 953, 954, 955, 956, 957, 958, 959, 960, 961, 962, 963, 964, 965, 966, 967, 968, 969, 970, 971, 972, 973, 974, 975, 976, 977, 978, 979, 980, 981, 982, 983, 984, 985, 986, 987, 988, 989, 990, 991, 992, 993, 994, 995, 996, 997, 998, 999, 1000, 1001, 1002, 1003, 1004, 1005, 1006, 1007, 1008, 1009, 1010, 1011, 1012, 1013, 1014, 1015, 1016, 1017, 1018, 1019, 1020, 1021, 1022, 1023, 1024, 1025, 1026, 1027, 1028, 1029, 1030, 1031, 1032, 1033, 1034, 1035, 1036, 1037, 1038, 1039, 1040, 1041, 1042, 1043, 1044, 1045, 1046, 1047, 1048, 1049, 1050, 1051, 1052, 1053, 1054, 1055, 1056, 1057, 1058, 1059, 1060, 1061, 1062, 1063, 1064, 1065, 1066, 1067, 1068, 1069, 1070, 1071, 1072, 1073, 1074, 1075, 1076, 1077, 1078, 1079, 1080, 1081, 1082, 1083, 1084, 1085, 1086, 1087, 1088, 1089, 1090, 1091, 1092, 1093, 1094, 1095, 1096, 1097, 1098, 1099, 1100, 1101, 1102, 1103, 1104, 1105, 1106, 1107, 1108, 1109, 1110, 1111, 1112, 1113, 1114, 1115, 1116, 1117, 1118, 1119, 1120, 1121, 1122, 1123, 1124, 1125, 1126, 1127, 1128, 1129, 1130, 1131, 1132, 1133, 1134, 1135, 1136, 1137, 1138, 1139, 1140, 1141, 1142, 1143, 1144, 1145, 1146, 1147, 1148, 1149, 1150, 1151, 1152, 1153, 1154, 1155, 1156, 1157, 1158, 1159, 1160, 1161, 1162, 1163, 1164, 1165, 1166, 1167, 1168, 1169, 1170, 1171, 1172, 1173, 1174, 1175, 1176, 1177, 1178, 1179, 1180, 1181, 1182, 1183, 
distro:
54, 54, 54, 54, 54, 54, 54, 54, 54, 54, 54, 54, 54, 54, 54, 54, 54, 54, 54, 54, 54, 54, 54, 54, 54, 54, 54, 54, 54, 54, 54, 54, 54, 54, 54, 54, 54, 54, 54, 54, 54, 54, 54, 54, 54, 54, 54, 54, 54, 54, 54, 54, 54, 54, 54, 54, 54, 54, 54, 54, 54, 54, 54, 54, 54, 54, 54, 54, 54, 54, 54, 54, 54, 54, 54, 54, 54, 54, 54, 54, 54, 54, 54, 54, 54, 54, 54, 54, 54, 54, 54, 54, 54, 54, 54, 54, 54, 54, 54, 54, 54, 54, 54, 54, 54, 54, 54, 54, 54, 54, 54, 54, 54, 54, 54, 54, 54, 54, 54, 54, 54, 54, 54, 54, 54, 54, 54, 54, 33, 33, 33, 33, 33, 33, 33, 33, 33, 33, 33, 33, 33, 33, 33, 33, 33, 33, 33, 33, 33, 33, 33, 33, 33, 33, 33, 33, 33, 33, 33, 33, 33, 33, 33, 33, 33, 33, 33, 33, 33, 33, 33, 33, 33, 33, 33, 33, 33, 33, 33, 33, 33, 33, 33, 33, 33, 33, 33, 33, 33, 33, 33, 33, 33, 33, 33, 33, 33, 33, 33, 33, 33, 33, 33, 33, 33, 33, 33, 33, 33, 33, 33, 33, 33, 33, 33, 33, 33, 33, 33, 33, 33, 33, 33, 33, 33, 33, 33, 33, 33, 33, 33, 33, 33, 33, 33, 33, 33, 33, 33, 33, 33, 33, 33, 33, 33, 33, 33, 33, 33, 33, 33, 33, 33, 33, 33, 33, 33, 33, 33, 33, 33, 33, 33, 33, 33, 33, 33, 33, 33, 33, 33, 33, 33, 33, 33, 33, 33, 33, 33, 33, 33, 33, 33, 33, 33, 33, 33, 33, 33, 33, 33, 33, 33, 33, 33, 33, 33, 33, 33, 33, 33, 33, 33, 33, 33, 33, 33, 33, 33, 33, 33, 33, 33, 33, 33, 33, 33, 33, 33, 33, 33, 33, 33, 33, 33, 33, 33, 33, 33, 33, 33, 33, 33, 33, 33, 33, 33, 33, 33, 33, 33, 33, 33, 33, 33, 33, 33, 33, 33, 33, 33, 33, 33, 33, 33, 33, 33, 33, 33, 33, 33, 33, 33, 33, 33, 33, 33, 33, 33, 33, 33, 33, 33, 33, 33, 33, 33, 33, 33, 33, 33, 33, 33, 33, 33, 33, 33, 33, 33, 33, 33, 33, 33, 33, 33, 33, 33, 33, 33, 33, 33, 33, 33, 33, 33, 33, 33, 33, 33, 33, 33, 33, 33, 33, 33, 33, 33, 33, 33, 33, 33, 33, 33, 33, 33, 33, 33, 33, 33, 33, 33, 33, 33, 33, 33, 33, 33, 33, 33, 33, 33, 33, 33, 33, 33, 33, 33, 33, 33, 33, 33, 33, 33, 33, 33, 33, 33, 33, 33, 33, 33, 33, 33, 33, 33, 33, 33, 33, 33, 33, 33, 33, 33, 33, 33, 33, 33, 33, 33, 33, 33, 33, 33, 33, 33, 33, 33, 33, 33, 33, 33, 33, 33, 33, 33, 33, 33, 33, 33, 33, 33, 33, 33, 33, 33, 33, 33, 33, 33, 33, 33, 33, 33, 33, 33, 33, 33, 33, 33, 33, 33, 33, 33, 33, 33, 33, 33, 33, 33, 33, 33, 33, 33, 33, 33, 33, 33, 33, 33, 33, 33, 33, 33, 33, 33, 33, 33, 33, 33, 33, 33, 33, 33, 33, 33, 33, 33, 33, 33, 33, 33, 33, 33, 33, 33, 33, 33, 33, 33, 33, 33, 33, 33, 33, 33, 33, 33, 33, 33, 33, 33, 33, 33, 33, 33, 33, 33, 33, 33, 33, 33, 33, 33, 33, 33, 33, 33, 33, 33, 33, 33, 33, 33, 33, 33, 33, 33, 33, 33, 33, 33, 33, 33, 33, 33, 33, 33, 33, 33, 33, 33, 33, 33, 33, 33, 33, 33, 33, 33, 33, 33, 33, 33, 33, 33, 33, 33, 33, 33, 33, 33, 33, 33, 33, 33, 33, 33, 33, 33, 33, 33, 33, 33, 33, 33, 33, 33, 33, 33, 33, 33, 33, 33, 33, 33, 33, 33, 33, 33, 33, 33, 33, 33, 33, 33, 33, 33, 33, 33, 33, 33, 33, 33, 33, 33, 33, 33, 33, 33, 33, 33, 33, 33, 33, 33, 33, 33, 33, 33, 33, 33, 33, 33, 33, 33, 33, 33, 33, 33, 33, 33, 33, 33, 33, 33, 33, 33, 33, 33, 33, 33, 33, 33, 33, 33, 33, 33, 33, 33, 33, 33, 33, 33, 33, 33, 33, 33, 33, 33, 33, 33, 33, 33, 33, 33, 33, 33, 33, 33, 33, 33, 33, 33, 33, 33, 33, 33, 33, 33, 33, 33, 33, 33, 33, 33, 33, 33, 33, 33, 33, 33, 33, 33, 33, 33, 33, 33, 33, 33, 33, 33, 33, 33, 33, 33, 33, 33, 33, 33, 33, 33, 33, 33, 33, 33, 33, 33, 33, 33, 33, 33, 33, 33, 33, 33, 33, 33, 33, 33, 33, 33, 33, 33, 33, 33, 33, 33, 33, 33, 33, 33, 33, 33, 33, 33, 33, 33, 33, 33, 33, 33, 33, 33, 33, 33, 33, 33, 33, 33, 33, 33, 33, 33, 33, 33, 33, 33, 33, 33, 33, 33, 33, 33, 33, 33, 33, 33, 33, 33, 33, 33, 33, 33, 33, 33, 33, 33, 33, 33, 33, 33, 33, 33, 33, 33, 33, 33, 33, 33, 33, 33, 33, 33, 33, 33, 33, 33, 33, 33, 33, 33, 33, 33, 33, 33, 33, 33, 33, 33, 33, 33, 33, 33, 33, 33, 33, 33, 33, 33, 33, 33, 33, 33, 33, 33, 33, 33, 33, 33, 33, 33, 33, 33, 33, 33, 33, 33, 33, 33, 33, 33, 33, 33, 33, 33, 33, 33, 33, 33, 33, 33, 33, 33, 33, 33, 33, 33, 33, 33, 33, 33, 33, 33, 33, 33, 33, 33, 33, 33, 33, 33, 33, 33, 33, 33, 33, 33, 33, 33, 33, 33, 33, 33, 33, 33, 33, 33, 33, 33, 33, 33, 33, 33, 33, 33, 33, 33, 33, 33, 33, 33, 33, 33, 33, 33, 33, 33, 33, 33, 33, 33, 33, 33, 33, 33, 33, 33, 33, 33, 33, 33, 33, 33, 33, 33, 33, 33, 33, 33, 33, 33, 33, 33, 33, 33, 33, 33, 33, 33, 33, 33, 33, 33, 33, 33, 33, 33, 33, 33, 33, 33, 33, 33, 33, 33, 33, 33, 33, 33, 33, 33, 33, 33, 33, 33, 33, 33, 33, 33, 33, 33, 33, 33, 33, 33, 33, 33, 33, 33, 33, 33, 33, 33, 33, 33, 33, 33, 33, 33, 33, 33, 33, 33, 33, 33, 33, 33, 33, 33, 33, 33, 33, 33, 33, 33, 33, 33, 33, 33, 33, 33, 33, 33, 33, 33, 33, 33, 33, 33, 33, 33, 33, 33, 33, 33, 33, 33, 33, 33, 33, 33, 33, 33, 33, 33, 33, 33, 33, 33, 33, 33, 33, 33, 33, 33, 33, 33, 33, 33, 33, 33, 33, 33, 33, 33, 33, 33, 33, 33, 33, 33, 33, 33, 33, 33, 33, 33, 33, 33, 33, 33, 33, 33, 33, 33, 33, 33, 33, 33, 33, 33, 33, 33, 33, 33, 33, 33, 33, 33, 33, 33, 33, 33, 33, 
gpgpu_n_tot_thrd_icount = 27705344
gpgpu_n_tot_w_icount = 865792
gpgpu_n_icache_hits = 478976
gpgpu_n_icache_misses = 2491
gpgpu_n_l1dcache_read_hits = 39906
gpgpu_n_l1dcache_read_misses = 69598
gpgpu_n_l1dcache_write_accesses = 74112
gpgpu_n_l1dcache_wirte_misses = 71801
gpgpu_n_tcache_hits = 0
gpgpu_n_tcache_misses = 0
gpgpu_n_ccache_hits = 6016
gpgpu_n_ccache_misses = 448
gpgpu_n_stall_shd_mem = 146611
gpgpu_n_mem_read_local = 0
gpgpu_n_mem_write_local = 0
gpgpu_n_mem_read_global = 36378
gpgpu_n_mem_write_global = 74112
gpgpu_n_mem_texture = 0
gpgpu_n_mem_const = 14
gpgpu_n_load_insn  = 3538944
gpgpu_n_store_insn = 2375680
gpgpu_n_shmem_insn = 0
gpgpu_n_tex_insn = 0
gpgpu_n_const_mem_insn = 0
gpgpu_n_param_mem_insn = 413696
gpgpu_n_shmem_bkconflict = 0
gpgpu_n_cache_bkconflict = 0
gpgpu_n_intrawarp_mshr_merge = 0
gpgpu_n_cmem_portconflict = 0
gpgpu_stall_shd_mem[c_mem][bk_conf] = 0
gpgpu_stall_shd_mem[c_mem][mshr_rc] = 0
gpgpu_stall_shd_mem[c_mem][icnt_rc] = 0
gpgpu_stall_shd_mem[t_mem][mshr_rc] = 0
gpgpu_stall_shd_mem[t_mem][icnt_rc] = 0
gpgpu_stall_shd_mem[s_mem][bk_conf] = 0
gpgpu_stall_shd_mem[gl_mem][bk_conf] = 0
gpgpu_stall_shd_mem[gl_mem][coal_stall] = 146611
gpgpu_stall_shd_mem[g_mem_ld][mshr_rc] = 0
gpgpu_stall_shd_mem[g_mem_ld][icnt_rc] = 0
gpgpu_stall_shd_mem[g_mem_ld][wb_icnt_rc] = 0
gpgpu_stall_shd_mem[g_mem_ld][wb_rsrv_fail] = 0
gpgpu_stall_shd_mem[g_mem_st][mshr_rc] = 0
gpgpu_stall_shd_mem[g_mem_st][icnt_rc] = 0
gpgpu_stall_shd_mem[g_mem_st][wb_icnt_rc] = 0
gpgpu_stall_shd_mem[g_mem_st][wb_rsrv_fail] = 0
gpgpu_stall_shd_mem[l_mem_ld][mshr_rc] = 0
gpgpu_stall_shd_mem[l_mem_ld][icnt_rc] = 0
gpgpu_stall_shd_mem[l_mem_ld][wb_icnt_rc] = 0
gpgpu_stall_shd_mem[l_mem_ld][wb_rsrv_fail] = 0
gpgpu_stall_shd_mem[l_mem_st][mshr_rc] = 0
gpgpu_stall_shd_mem[l_mem_st][icnt_rc] = 0
gpgpu_stall_shd_mem[l_mem_ld][wb_icnt_rc] = 0
gpgpu_stall_shd_mem[l_mem_ld][wb_rsrv_fail] = 0
gpu_reg_bank_conflict_stalls = 0
Warp Occupancy Distribution:
Stall:154287	W0_Idle:106865	W0_Scoreboard:375466	W1:0	W2:0	W3:0	W4:0	W5:0	W6:0	W7:0	W8:0	W9:0	W10:0	W11:0	W12:0	W13:0	W14:0	W15:0	W16:0	W17:0	W18:0	W19:0	W20:0	W21:0	W22:0	W23:0	W24:0	W25:0	W26:0	W27:0	W28:0	W29:0	W30:0	W31:0	W32:865792
maxmrqlatency = 397 
maxdqlatency = 0 
maxmflatency = 802 
averagemflatency = 177 
max_icnt2mem_latency = 427 
max_icnt2sh_latency = 171210 
mrq_lat_table:25107 	5167 	1879 	1362 	1327 	587 	725 	401 	25 	0 	0 	0 	0 	0 	0 	0 	0 	0 	0 	0 	0 	0 	0 	0 	0 	0 	0 	0 	0 	0 	0 	0 	
dq_lat_table:0 	0 	0 	0 	0 	0 	0 	0 	0 	0 	0 	0 	0 	0 	0 	0 	0 	0 	0 	0 	0 	0 	0 	0 	0 	0 	0 	0 	0 	0 	0 	0 	
mf_lat_table:0 	0 	0 	0 	0 	0 	27069 	74527 	8401 	507 	0 	0 	0 	0 	0 	0 	0 	0 	0 	0 	0 	0 	0 	0 	0 	0 	0 	0 	0 	0 	0 	0 	
icnt2mem_lat_table:56 	42873 	43818 	13986 	2631 	2832 	3445 	690 	251 	0 	0 	0 	0 	0 	0 	0 	0 	0 	0 	0 	0 	0 	0 	0 	
icnt2sh_lat_table:0 	21578 	10358 	3880 	574 	2 	0 	0 	0 	44 	351 	848 	1768 	3506 	7019 	14054 	26420 	20102 	0 	0 	0 	0 	0 	0 	
mf_lat_pw_table:0 	0 	0 	0 	0 	0 	1 	328 	11 	0 	0 	0 	0 	0 	0 	0 	0 	0 	0 	0 	0 	0 	0 	0 	0 	0 	0 	0 	0 	0 	0 	0 	
maximum concurrent accesses to same row:
dram[0]:        32        32        32        32        32        32        32        36        32        32        32        32        32        32        32        32 
dram[1]:        32        32        32        32        32        32        32        41        32        32        32        32        32        32        32        32 
dram[2]:        32        32        32        32        32        32        32        42        32        32        32        32        32        32        32        32 
dram[3]:        32        32        32        32        32        32        32        38        32        32        32        32        32        32        32        32 
dram[4]:        32        32        32        32        32        32        32        36        32        32        32        32        32        32        32        32 
maximum service time to same row:
dram[0]:     12664     12633     12618     12657     12625     12652     12600     12618     12615     12649     12806     12669     12624     12620     12628     12627 
dram[1]:     12613     12650     12625     12684     12631     12637     12637     12613     12661     12621     12845     12741     12666     12707     12607     12683 
dram[2]:     12634     12626     12649     12646     12656     12665     12613     12641     12610     12633     12988     12664     12668     12656     12656     12631 
dram[3]:     12618     12657     12630     12653     12644     12638     12632     12638     12605     12660     12930     12649     12635     12669     12636     12684 
dram[4]:     12607     12672     12598     12689     12610     12652     12616     12664     12600     12688     12880     12675     12645     12663     12632     12659 
average row accesses per activate:
dram[0]: 11.190476 16.600000 15.357142 17.333334 13.500000 16.600000 12.588235 16.233334 14.645162 16.600000 15.750000 15.125000 13.236842 16.200001 14.735294 17.285715 
dram[1]: 12.805555 17.416666 14.724138 14.928572 16.423077 16.719999 14.300000 15.000000 13.117647 14.928572 16.161291 14.352942 16.666666 15.218750 15.272727 17.250000 
dram[2]: 12.916667 15.884615 14.862069 15.296296 14.433333 17.250000 16.538462 15.903226 14.354838 14.857142 14.342857 15.709678 14.705882 15.741936 16.064516 14.666667 
dram[3]: 12.540541 15.846154 14.433333 15.333333 14.931034 15.884615 14.000000 15.093750 13.636364 15.185185 13.783784 15.451612 14.457143 14.575758 15.303030 15.451612 
dram[4]: 12.567568 15.370370 15.962963 15.961538 15.392858 15.961538 12.676471 15.967742 13.147058 16.639999 13.540541 17.392857 14.285714 15.281250 15.625000 17.777779 
average row locality = 36580/2438 = 15.004102
number of total memory accesses made:
dram[0]:         0         0         0         0         0         0         0         0         0         0         0         0         0         0         0         0 
dram[1]:         0         0         0         0         0         0         0         0         0         0         0         0         0         0         0         0 
dram[2]:         0         0         0         0         0         0         0         0         0         0         0         0         0         0         0         0 
dram[3]:         0         0         0         0         0         0         0         0         0         0         0         0         0         0         0         0 
dram[4]:         0         0         0         0         0         0         0         0         0         0         0         0         0         0         0         0 
total accesses: 0
min_bank_accesses = 0!
min_chip_accesses = 0!
number of total read accesses:
dram[0]:       455       404       416       404       416       404       414       426       420       403       485       470       484       470       485       470 
dram[1]:       447       407       413       406       414       406       414       429       418       405       482       473       482       473       482       472 
dram[2]:       447       404       415       404       415       404       413       429       417       405       482       473       482       473       482       473 
dram[3]:       446       404       416       404       416       404       416       424       420       401       486       469       485       469       486       469 
dram[4]:       446       406       414       405       415       405       413       428       418       405       482       473       482       473       482       472 
total reads: 35101
bank skew: 486/401 = 1.21
chip skew: 7026/7015 = 1.00
number of total write accesses:
dram[0]:        15        11        14        12        16        11        14        61        34        12        19        14        19        16        16        14 
dram[1]:        14        11        14        12        13        12        15        66        28        13        19        15        18        14        22        11 
dram[2]:        18         9        16         9        18        10        17        64        28        11        20        14        18        15        16        11 
dram[3]:        18         8        17        10        17         9        18        59        30         9        24        10        21        12        19        10 
dram[4]:        19         9        17        10        16        10        18        67        29        11        19        14        18        16        18         8 
total reads: 1479
bank skew: 67/8 = 8.38
chip skew: 299/291 = 1.03
average mf latency per bank:
dram[0]:        316       291       312       296       306       293       302      3035      1193       290       308       292       309       290       315       290
dram[1]:        308       295       310       291       308       292       308      3196       985       290       312       289       309       293       311       297
dram[2]:        307       296       310       291       308       290       304      3272       911       294       308       292       309       290       314       290
dram[3]:        312       294       311       293       304       294       307      3122       901       288       312       292       310       288       316       290
dram[4]:        306       296       307       295       311       291       311      3199       910       292       310       295       308       295       312       297
maximum mf latency per bank:
dram[0]:        571       586       584       791       601       605       618       632       682       584       693       630       698       471       642       701
dram[1]:        637       577       631       537       565       704       604       646       557       649       635       606       658       552       641       658
dram[2]:        612       574       597       587       573       630       596       616       741       598       724       717       756       693       604       585
dram[3]:        649       539       652       655       535       624       627       677       736       746       658       659       726       567       677       607
dram[4]:        576       637       667       802       569       568       764       518       645       695       712       636       734       682       614       638

Number of Memory Banks Accessed per Memory Operation per Warp (from 0):
0	0	0	0	0	0	0	0	0	0	0	0	0	0	0	0	0	0	0	0	0	0	0	0	0	0	0	0	0	0	0	0	0	0	0	0	0	0	0	0	0	0	0	0	0	0	0	0	0	0	0	0	0	0	0	0	0	0	0	0	0	0	0	0	0	0	0	0	0	0	0	0	0	0	0	0	0	0	0	0	
Average # of Memory Banks Accessed per Memory Operation per Warp=-nan

position of mrq chosen
0	0	0	0	0	0	0	0	0	0	0	0	0	0	0	0	

average position of mrq chosen = -nan
gpgpu_l2_write_miss = 0
gpgpu_l2_write_access = 0
gpgpu_l2_read_miss = 0
gpgpu_l2_read_access = 0
Cache L2_bank_000:
MSHR contents

DRAM[0]: 16 bks, busW=4 BL=8 CL=12, tRRD=2 tCCD=6, tRCD=12 tRAS=28 tRP=12 tRC=40
n_cmd=239619 n_nop=224031 n_act=491 n_pre=475 n_req=7324 n_rd=14052 n_write=570 bw_util=0.122
n_activity=79709 dram_eff=0.3669
bk0: 910a 236297i bk1: 808a 236291i bk2: 832a 236351i bk3: 808a 236221i bk4: 832a 236332i bk5: 808a 236148i bk6: 828a 236162i bk7: 852a 236224i bk8: 840a 236156i bk9: 806a 235959i bk10: 970a 235847i bk11: 940a 235536i bk12: 968a 235665i bk13: 940a 235216i bk14: 970a 234827i bk15: 940a 229907i 
dram_util_bins: 0 0 0 0 0 0 0 0 0 0
dram_eff_bins: 0 0 0 0 0 0 0 0 0 0
mrqq: max=16 avg=0.236162
Cache L2_bank_001:
MSHR contents

DRAM[1]: 16 bks, busW=4 BL=8 CL=12, tRRD=2 tCCD=6, tRCD=12 tRAS=28 tRP=12 tRC=40
n_cmd=239619 n_nop=224059 n_act=481 n_pre=465 n_req=7320 n_rd=14046 n_write=568 bw_util=0.122
n_activity=79330 dram_eff=0.3684
bk0: 894a 236489i bk1: 814a 236593i bk2: 826a 236363i bk3: 812a 236395i bk4: 828a 236252i bk5: 812a 236243i bk6: 828a 236160i bk7: 858a 236315i bk8: 836a 236150i bk9: 810a 236038i bk10: 964a 235984i bk11: 946a 235909i bk12: 964a 235619i bk13: 946a 235314i bk14: 964a 234445i bk15: 944a 230288i 
dram_util_bins: 0 0 0 0 0 0 0 0 0 0
dram_eff_bins: 0 0 0 0 0 0 0 0 0 0
mrqq: max=16 avg=0.23229
Cache L2_bank_002:
MSHR contents

DRAM[2]: 16 bks, busW=4 BL=8 CL=12, tRRD=2 tCCD=6, tRCD=12 tRAS=28 tRP=12 tRC=40
n_cmd=239619 n_nop=224071 n_act=483 n_pre=467 n_req=7312 n_rd=14036 n_write=562 bw_util=0.1218
n_activity=79566 dram_eff=0.3669
bk0: 894a 236441i bk1: 808a 236424i bk2: 830a 236339i bk3: 808a 236319i bk4: 830a 236303i bk5: 808a 236247i bk6: 826a 236082i bk7: 858a 236048i bk8: 834a 236007i bk9: 810a 236001i bk10: 964a 235931i bk11: 946a 235723i bk12: 964a 235615i bk13: 946a 235115i bk14: 964a 234696i bk15: 946a 229989i 
dram_util_bins: 0 0 0 0 0 0 0 0 0 0
dram_eff_bins: 0 0 0 0 0 0 0 0 0 0
mrqq: max=16 avg=0.239388
Cache L2_bank_003:
MSHR contents

DRAM[3]: 16 bks, busW=4 BL=8 CL=12, tRRD=2 tCCD=6, tRCD=12 tRAS=28 tRP=12 tRC=40
n_cmd=239619 n_nop=224052 n_act=498 n_pre=482 n_req=7306 n_rd=14030 n_write=557 bw_util=0.1218
n_activity=79259 dram_eff=0.3681
bk0: 892a 236458i bk1: 808a 236410i bk2: 832a 236430i bk3: 808a 236402i bk4: 832a 236387i bk5: 808a 236258i bk6: 832a 236263i bk7: 848a 236197i bk8: 840a 236158i bk9: 802a 236133i bk10: 972a 236003i bk11: 938a 235988i bk12: 970a 235466i bk13: 938a 235109i bk14: 972a 234570i bk15: 938a 229814i 
dram_util_bins: 0 0 0 0 0 0 0 0 0 0
dram_eff_bins: 0 0 0 0 0 0 0 0 0 0
mrqq: max=16 avg=0.223242
Cache L2_bank_004:
MSHR contents

DRAM[4]: 16 bks, busW=4 BL=8 CL=12, tRRD=2 tCCD=6, tRCD=12 tRAS=28 tRP=12 tRC=40
n_cmd=239619 n_nop=224052 n_act=486 n_pre=470 n_req=7318 n_rd=14038 n_write=573 bw_util=0.122
n_activity=79516 dram_eff=0.3675
bk0: 892a 236568i bk1: 812a 236547i bk2: 828a 236510i bk3: 810a 236382i bk4: 830a 236290i bk5: 810a 236176i bk6: 826a 236137i bk7: 856a 236179i bk8: 836a 236052i bk9: 810a 235913i bk10: 964a 235925i bk11: 946a 235763i bk12: 964a 235660i bk13: 946a 235087i bk14: 964a 234655i bk15: 944a 229779i 
dram_util_bins: 0 0 0 0 0 0 0 0 0 0
dram_eff_bins: 0 0 0 0 0 0 0 0 0 0
mrqq: max=16 avg=0.240703
Cache L2_bank_000:	Size = 131072 B (64 Set x 16-way x 128 byte line)
		Access = 22320, Miss = 7026 (0.315), PendingHit = 190 (0.00851)
Cache L2_bank_001:	Size = 131072 B (64 Set x 16-way x 128 byte line)
		Access = 22310, Miss = 7023 (0.315), PendingHit = 189 (0.00847)
Cache L2_bank_002:	Size = 131072 B (64 Set x 16-way x 128 byte line)
		Access = 22340, Miss = 7018 (0.314), PendingHit = 186 (0.00833)
Cache L2_bank_003:	Size = 131072 B (64 Set x 16-way x 128 byte line)
		Access = 21554, Miss = 7015 (0.325), PendingHit = 189 (0.00877)
Cache L2_bank_004:	Size = 131072 B (64 Set x 16-way x 128 byte line)
		Access = 22058, Miss = 7019 (0.318), PendingHit = 186 (0.00843)
L2 Cache Total Miss Rate = 0.317

icnt_total_pkts_mem_to_simt=256434
icnt_total_pkts_simt_to_mem=297718

LD_mem_lat_dist  0 0 0 0 0 0 0 0 0 0 0 0 0 0 0 0 0 0 0 0 0 0 0 0 0 0 0
ST_mem_lat_dist  0 0 0 0 0 0 0 0 0 0 0 0 0 0 0 0 0 0 0 0 0 0 0 0 0 0 0
Traffic 0 Stat
%=================================
% Average latency = 49.3269
% Accepted packets = 0 at node 0 (avg = 0.0227752)
lat(5) = 49.3269;
thru(5,:) = [ 0 0 0 0 0 0 0 0 0 0 0 0 0 0 0.104782 0.104462 0.105246 0.104734 0.104606 0 0 0 0 ];
% latency change    = 0.921837
% throughput change = 0.363626
Traffic 1 Stat
%=================================
% Average latency = 4.57116
% Accepted packets = 0 at node 14 (avg = 0.0147569)
lat(6) = 4.57116;
thru(6,:) = [ 0.0216994 0.0270642 0.0215713 0.025687 0.0264237 0.0262155 0.0216194 0.0216194 0.0262155 0.0216194 0.0262155 0.0213631 0.0258792 0.0262155 0 0 0 0 0 0 0 0 0 ];
% latency change    = 9.79089
% throughput change = 0.543361
----------------------------Interconnect-DETAILS---------------------------------=======Traffic[0]class0 ======
Traffic[0]class0Overall average latency = 20.1692 (3 samples)
Traffic[0]class0Overall average accepted rate = 0.0315434 (3 samples)
Traffic[0]class0Overall min accepted rate = 0 (3 samples)
traffic_manager/latency_stat_0_freq = [ 0 1622 266 94 50 119 91 49 46 69 56 52 44 52 39 30 99 146 89 124 122 115 111 143 140 131 138 131 147 171 148 151 160 142 150 165 156 162 123 146 155 142 123 133 122 141 139 121 113 117 104 100 88 112 104 106 109 84 102 74 77 89 81 84 62 68 67 66 67 63 56 49 40 44 43 37 41 50 49 22 39 32 33 42 42 38 34 43 24 24 15 25 17 23 24 21 18 15 9 13 12 13 14 11 12 10 18 13 8 7 4 8 8 4 7 9 4 6 6 15 2 6 8 5 6 8 6 7 7 5 4 4 5 6 6 4 1 6 1 6 1 4 1 2 1 1 1 2 5 1 1 1 0 2 4 0 4 3 0 3 1 4 3 2 2 1 1 0 1 1 1 1 2 1 2 0 0 1 0 1 3 2 2 3 0 2 2 4 0 2 3 1 0 1 0 1 2 1 2 2 2 0 2 5 0 1 0 2 2 2 1 0 0 0 0 4 0 1 1 0 1 2 1 1 0 0 0 1 0 0 1 2 1 0 0 1 1 1 0 1 0 2 1 0 1 3 0 1 0 2 0 1 0 1 0 1 0 0 0 1 0 2 1 0 0 0 2 0 0 4 0 3 0 4 1 0 2 2 3 1 2 1 2 1 0 2 0 0 4 4 1 0 2 4 0 1 1 0 2 0 2 1 0 2 5 1 0 1 0 3 3 0 0 2 1 0 1 2 1 1 0 0 3 0 1 3 3 3 0 1 2 1 2 0 1 3 2 0 3 0 0 1 1 0 0 1 2 1 2 2 1 1 0 0 0 1 0 0 0 0 0 0 0 0 0 0 0 0 0 0 0 0 0 2 0 0 1 0 0 0 0 0 0 0 0 1 0 0 0 1 0 1 0 0 1 0 0 0 3 0 2 2 3 2 1 0 0 1 0 2 3 1 3 1 2 0 2 1 2 1 0 2 0 1 1 1 2 2 0 1 0 0 0 3 0 0 1 2 0 0 0 0 0 2 0 1 0 1 0 0 0 2 0 1 1 1 0 1 0 0 0 0 0 0 0 0 0 0 0 0 1 2 0 1 0 0 0 0 0 2 0 0 0 0 0 0 0 1 0 2 2 0 1 0 2 1 1 0 1 1 0 0 0 1 1 0 0 0 0 0 1 0 1 1 2 1 0 0 0 0 0 0 0 0 0 0 2 0 0 0 0 0 0 0 1 3 0 0 2 1 0 1 0 0 1 1 1 0 0 0 1 0 0 2 1 0 0 0 0 0 0 0 0 0 0 0 0 0 0 1 1 0 1 1 0 0 0 0 0 0 0 0 0 0 0 1 0 0 1 1 0 0 0 0 1 0 0 1 2 0 0 0 0 1 2 0 1 0 0 0 0 0 1 2 1 2 2 0 1 0 0 0 0 0 0 0 1 0 0 0 1 1 0 0 0 0 1 1 1 0 1 3 0 2 0 0 0 3 0 0 0 0 0 0 0 0 0 0 0 0 0 0 0 0 0 0 0 0 2 0 1 0 1 1 0 0 0 0 1 0 0 0 0 0 0 0 0 1 0 1 0 0 0 0 0 0 0 0 0 1 0 0 0 0 0 0 1 0 0 0 1 1 0 0 0 0 0 0 1 0 0 0 0 0 0 0 0 0 0 0 2 0 0 0 0 0 0 0 1 0 0 0 0 0 0 0 0 0 0 0 1 0 0 0 0 0 0 0 0 0 0 0 0 1 0 0 0 0 0 0 0 1 0 0 0 0 1 0 0 0 0 0 0 1 0 0 0 0 0 0 1 0 0 0 0 0 1 0 0 1 0 0 0 0 1 0 0 0 0 0 0 0 0 0 0 0 1 0 0 0 0 0 0 0 0 0 0 0 0 0 0 0 0 0 0 0 0 0 0 0 0 0 0 0 0 0 0 0 0 0 0 0 0 0 0 0 0 0 0 0 0 0 0 0 0 0 0 0 0 0 0 0 0 0 0 0 0 0 0 0 0 0 0 0 0 0 0 0 0 0 0 0 0 0 0 0 0 0 0 0 0 0 0 0 0 0 0 0 0 0 0 0 0 0 0 0 0 0 0 0 0 0 0 0 0 0 0 0 0 0 0 0 0 0 0 0 0 0 0 0 0 0 0 0 0 0 0 0 0 0 0 0 0 0 0 0 0 0 0 0 0 0 0 0 0 0 0 0 0 0 0 0 0 0 0 0 0 0 0 0 0 0 0 0 0 0 0 0 0 0 0 0 0 0 0 0 0 0 0 0 ];
Traffic[0]class1Average hops = 1 (110582 samples)
traffic_manager/hop_stats_freq = [ 0 110582 0 0 0 0 0 0 0 0 0 0 0 0 0 0 0 0 0 0 ];
=======Traffic[1]class0 ======
Traffic[1]class0Overall average latency = 4.8549 (3 samples)
Traffic[1]class0Overall average accepted rate = 0.0261795 (3 samples)
Traffic[1]class0Overall min accepted rate = 0 (3 samples)
traffic_manager/latency_stat_0_freq = [ 0 6832 121 87 120 886 259 189 257 278 185 87 95 103 110 88 273 88 77 66 84 97 40 21 23 26 45 13 27 12 10 23 16 10 6 1 16 3 2 0 1 7 1 0 2 1 2 2 0 0 0 2 0 0 0 0 0 0 0 0 0 0 0 0 0 0 0 0 0 0 0 0 0 0 0 0 0 0 0 0 0 0 0 0 0 0 0 0 0 0 0 0 0 0 0 0 0 0 0 0 0 0 0 0 0 0 0 0 0 0 0 0 0 0 0 0 0 0 0 0 0 0 0 0 0 0 0 0 0 0 0 0 0 0 0 0 0 0 0 0 0 0 0 0 0 0 0 0 0 0 0 0 0 0 0 0 0 0 0 0 0 0 0 0 0 0 0 0 0 0 0 0 0 0 0 0 0 0 0 0 0 0 0 0 0 0 0 0 0 0 0 0 0 0 0 0 0 0 0 0 0 0 0 0 0 0 0 0 0 0 0 0 0 0 0 0 0 0 0 0 0 0 0 0 0 0 0 0 0 0 0 0 0 0 0 0 0 0 0 0 0 0 0 0 0 0 0 0 0 0 0 0 0 0 0 0 0 0 0 0 0 0 0 0 0 0 0 0 0 0 0 0 0 0 0 0 0 0 0 0 0 0 0 0 0 0 0 0 0 0 0 0 0 0 0 0 0 0 0 0 0 0 0 0 0 0 0 0 0 0 0 0 0 0 0 0 0 0 0 0 0 0 0 0 0 0 0 0 0 0 0 0 0 0 0 0 0 0 0 0 0 0 0 0 0 0 0 0 0 0 0 0 0 0 0 0 0 0 0 0 0 0 0 0 0 0 0 0 0 0 0 0 0 0 0 0 0 0 0 0 0 0 0 0 0 0 0 0 0 0 0 0 0 0 0 0 0 0 0 0 0 0 0 0 0 0 0 0 0 0 0 0 0 0 0 0 0 0 0 0 0 0 0 0 0 0 0 0 0 0 0 0 0 0 0 0 0 0 0 0 0 0 0 0 0 0 0 0 0 0 0 0 0 0 0 0 0 0 0 0 0 0 0 0 0 0 0 0 0 0 0 0 0 0 0 0 0 0 0 0 0 0 0 0 0 0 0 0 0 0 0 0 0 0 0 0 0 0 0 0 0 0 0 0 0 0 0 0 0 0 0 0 0 0 0 0 0 0 0 0 0 0 0 0 0 0 0 0 0 0 0 0 0 0 0 0 0 0 0 0 0 0 0 0 0 0 0 0 0 0 0 0 0 0 0 0 0 0 0 0 0 0 0 0 0 0 0 0 0 0 0 0 0 0 0 0 0 0 0 0 0 0 0 0 0 0 0 0 0 0 0 0 0 0 0 0 0 0 0 0 0 0 0 0 0 0 0 0 0 0 0 0 0 0 0 0 0 0 0 0 0 0 0 0 0 0 0 0 0 0 0 0 0 0 0 0 0 0 0 0 0 0 0 0 0 0 0 0 0 0 0 0 0 0 0 0 0 0 0 0 0 0 0 0 0 0 0 0 0 0 0 0 0 0 0 0 0 0 0 0 0 0 0 0 0 0 0 0 0 0 0 0 0 0 0 0 0 0 0 0 0 0 0 0 0 0 0 0 0 0 0 0 0 0 0 0 0 0 0 0 0 0 0 0 0 0 0 0 0 0 0 0 0 0 0 0 0 0 0 0 0 0 0 0 0 0 0 0 0 0 0 0 0 0 0 0 0 0 0 0 0 0 0 0 0 0 0 0 0 0 0 0 0 0 0 0 0 0 0 0 0 0 0 0 0 0 0 0 0 0 0 0 0 0 0 0 0 0 0 0 0 0 0 0 0 0 0 0 0 0 0 0 0 0 0 0 0 0 0 0 0 0 0 0 0 0 0 0 0 0 0 0 0 0 0 0 0 0 0 0 0 0 0 0 0 0 0 0 0 0 0 0 0 0 0 0 0 0 0 0 0 0 0 0 0 0 0 0 0 0 0 0 0 0 0 0 0 0 0 0 0 0 0 0 0 0 0 0 0 0 0 0 0 0 0 0 0 0 0 0 0 0 0 0 0 0 0 0 0 0 0 0 0 0 0 0 0 0 0 0 0 0 0 0 0 0 0 0 0 0 0 0 0 0 0 0 0 0 0 0 0 0 0 0 0 0 0 0 0 0 0 0 0 0 0 0 0 0 0 0 0 0 0 0 0 0 0 0 0 0 0 0 0 0 0 0 0 0 0 0 0 0 0 0 0 0 0 0 0 0 0 0 0 0 0 0 0 0 0 0 ];
Traffic[1]class1Average hops = 1 (110582 samples)
traffic_manager/hop_stats_freq = [ 0 110582 0 0 0 0 0 0 0 0 0 0 0 0 0 0 0 0 0 0 ];
----------------------------END-of-Interconnect-DETAILS-------------------------

gpgpu_simulation_time = 0 days, 0 hrs, 1 min, 7 sec (67 sec)
gpgpu_simulation_rate = 412412 (inst/sec)
gpgpu_simulation_rate = 2861 (cycle/sec)
GPGPU-Sim: synchronize waiting for inactive GPU simulation
GPGPU-Sim API: Stream Manager State
GPGPU-Sim: detected inactive GPU simulation thread
GPGPU-Sim: synchronize waiting for inactive GPU simulation
GPGPU-Sim API: Stream Manager State
GPGPU-Sim: detected inactive GPU simulation thread
GPU Runtime: 66.486055s
