

        *** GPGPU-Sim Simulator Version 3.2.1  [build 15629] ***


               1=functional simulation only, 0=detailed performance simulator)
GPGPU-Sim: Configuration options:

-network_mode                           1 # Interconnection network mode
-inter_config_file   config_fermi_islip.icnt # Interconnection network config file
-gpgpu_ptx_use_cuobjdump                    1 # Use cuobjdump to extract ptx and sass from binaries
-gpgpu_experimental_lib_support                    0 # Try to extract code from cuda libraries [Broken because of unknown cudaGetExportTable]
-gpgpu_ptx_convert_to_ptxplus                    0 # Convert SASS (native ISA) to ptxplus and run ptxplus
-gpgpu_ptx_force_max_capability                   20 # Force maximum compute capability
-gpgpu_ptx_inst_debug_to_file                    0 # Dump executed instructions' debug information to file
-gpgpu_ptx_inst_debug_file       inst_debug.txt # Executed instructions' debug output file
-gpgpu_ptx_inst_debug_thread_uid                    1 # Thread UID for executed instructions' debug output
-gpgpu_simd_model                       1 # 1 = post-dominator
-gpgpu_shader_core_pipeline              1536:32 # shader core pipeline config, i.e., {<nthread>:<warpsize>}
-gpgpu_tex_cache:l1  4:128:24,L:R:m:N,F:128:4,128:2 # per-shader L1 texture cache  (READ-ONLY) config  {<nsets>:<bsize>:<assoc>,<rep>:<wr>:<alloc>:<wr_alloc>,<mshr>:<N>:<merge>,<mq>:<rf>}
-gpgpu_const_cache:l1 64:64:2,L:R:f:N,A:2:32,4 # per-shader L1 constant memory cache  (READ-ONLY) config  {<nsets>:<bsize>:<assoc>,<rep>:<wr>:<alloc>:<wr_alloc>,<mshr>:<N>:<merge>,<mq>} 
-gpgpu_cache:il1     4:128:4,L:R:f:N,A:2:32,4 # shader L1 instruction cache config  {<nsets>:<bsize>:<assoc>,<rep>:<wr>:<alloc>:<wr_alloc>,<mshr>:<N>:<merge>,<mq>} 
-gpgpu_cache:dl1     32:128:4,L:L:m:N,A:32:8,8 # per-shader L1 data cache config  {<nsets>:<bsize>:<assoc>,<rep>:<wr>:<alloc>:<wr_alloc>,<mshr>:<N>:<merge>,<mq> | none}
-gpgpu_perfect_mem                      0 # enable perfect memory mode (no cache miss)
-n_regfile_gating_group                    4 # group of lanes that should be read/written together)
-gpgpu_clock_gated_reg_file                    0 # enable clock gated reg file for power calculations
-gpgpu_clock_gated_lanes                    0 # enable clock gated lanes for power calculations
-gpgpu_shader_registers                32768 # Number of registers per shader core. Limits number of concurrent CTAs. (default 8192)
-gpgpu_shader_cta                       8 # Maximum number of concurrent CTAs in shader (default 8)
-gpgpu_n_clusters                      14 # number of processing clusters
-gpgpu_n_cores_per_cluster                    1 # number of simd cores per cluster
-gpgpu_n_cluster_ejection_buffer_size                    8 # number of packets in ejection buffer
-gpgpu_n_ldst_response_buffer_size                    2 # number of response packets in ld/st unit ejection buffer
-gpgpu_shmem_size                   16384 # Size of shared memory per shader core (default 16kB)
-gpgpu_shmem_num_banks                   32 # Number of banks in the shared memory in each shader core (default 16)
-gpgpu_shmem_limited_broadcast                    0 # Limit shared memory to do one broadcast per cycle (default on)
-gpgpu_shmem_warp_parts                    1 # Number of portions a warp is divided into for shared memory bank conflict check 
-gpgpu_warpdistro_shader                   -1 # Specify which shader core to collect the warp size distribution from
-gpgpu_warp_issue_shader                    0 # Specify which shader core to collect the warp issue distribution from
-gpgpu_local_mem_map                    1 # Mapping from local memory space address to simulated GPU physical address space (default = enabled)
-gpgpu_num_reg_banks                   16 # Number of register banks (default = 8)
-gpgpu_reg_bank_use_warp_id                    0 # Use warp ID in mapping registers to banks (default = off)
-gpgpu_operand_collector_num_units_sp                    6 # number of collector units (default = 4)
-gpgpu_operand_collector_num_units_sfu                    8 # number of collector units (default = 4)
-gpgpu_operand_collector_num_units_mem                    2 # number of collector units (default = 2)
-gpgpu_operand_collector_num_units_gen                    0 # number of collector units (default = 0)
-gpgpu_operand_collector_num_in_ports_sp                    2 # number of collector unit in ports (default = 1)
-gpgpu_operand_collector_num_in_ports_sfu                    1 # number of collector unit in ports (default = 1)
-gpgpu_operand_collector_num_in_ports_mem                    1 # number of collector unit in ports (default = 1)
-gpgpu_operand_collector_num_in_ports_gen                    0 # number of collector unit in ports (default = 0)
-gpgpu_operand_collector_num_out_ports_sp                    2 # number of collector unit in ports (default = 1)
-gpgpu_operand_collector_num_out_ports_sfu                    1 # number of collector unit in ports (default = 1)
-gpgpu_operand_collector_num_out_ports_mem                    1 # number of collector unit in ports (default = 1)
-gpgpu_operand_collector_num_out_ports_gen                    0 # number of collector unit in ports (default = 0)
-gpgpu_coalesce_arch                   13 # Coalescing arch (default = 13, anything else is off for now)
-gpgpu_num_sched_per_core                    2 # Number of warp schedulers per core
-gpgpu_max_insn_issue_per_warp                    1 # Max number of instructions that can be issued per warp in one cycle by scheduler
-gpgpu_simt_core_sim_order                    1 # Select the simulation order of cores in a cluster (0=Fix, 1=Round-Robin)
-gpgpu_pipeline_widths        2,1,1,2,1,1,2 # Pipeline widths ID_OC_SP,ID_OC_SFU,ID_OC_MEM,OC_EX_SP,OC_EX_SFU,OC_EX_MEM,EX_WB
-gpgpu_num_sp_units                     2 # Number of SP units (default=1)
-gpgpu_num_sfu_units                    1 # Number of SF units (default=1)
-gpgpu_num_mem_units                    1 # Number if ldst units (default=1) WARNING: not hooked up to anything
-gpgpu_scheduler                      lrr # Scheduler configuration: < lrr | gto | two_level_active > If two_level_active:<num_active_warps>:<inner_prioritization>:<outer_prioritization>For complete list of prioritization values see shader.h enum scheduler_prioritization_typeDefault: gto
-gpgpu_dram_scheduler                    1 # 0 = fifo, 1 = FR-FCFS (defaul)
-gpgpu_dram_partition_queues              8:8:8:8 # i2$:$2d:d2$:$2i
-l2_ideal                               0 # Use a ideal L2 cache that always hit
-gpgpu_cache:dl2     64:128:16,L:B:m:W,A:32:4,4 # unified banked L2 data cache config  {<nsets>:<bsize>:<assoc>,<rep>:<wr>:<alloc>:<wr_alloc>,<mshr>:<N>:<merge>,<mq>}
-gpgpu_cache:dl2_texture_only                    0 # L2 cache used for texture only
-gpgpu_n_mem                            5 # number of memory modules (e.g. memory controllers) in gpu
-gpgpu_n_mem_per_ctrlr                    2 # number of memory chips per memory controller
-gpgpu_memlatency_stat                   14 # track and display latency statistics 0x2 enables MC, 0x4 enables queue logs
-gpgpu_frfcfs_dram_sched_queue_size                   16 # 0 = unlimited (default); # entries per chip
-gpgpu_dram_return_queue_size                    0 # 0 = unlimited (default); # entries per chip
-gpgpu_dram_buswidth                    4 # default = 4 bytes (8 bytes per cycle at DDR)
-gpgpu_dram_burst_length                    8 # Burst length of each DRAM request (default = 4 data bus cycle)
-dram_data_command_freq_ratio                    4 # Frequency ratio between DRAM data bus and command bus (default = 2 times, i.e. DDR)
-gpgpu_dram_timing_opt nbk=16:CCD=2:RRD=6:RCD=12:RAS=28:RP=12:RC=40: CL=12:WL=4:CDLR=5:WR=12:nbkgrp=4:CCDL=3:RTPL=2 # DRAM timing parameters = {nbk:tCCD:tRRD:tRCD:tRAS:tRP:tRC:CL:WL:tCDLR:tWR:nbkgrp:tCCDL:tRTPL}
-rop_latency                          100 # ROP queue latency (default 85)
-dram_latency                          83 # DRAM latency (default 30)
-gpgpu_mem_addr_mapping dramid@8;00000000.00000000.00000000.00000000.0000RRRR.RRRRRRRR.BBBBCCCC.CCSSSSSS # mapping memory address to dram model {dramid@<start bit>;<memory address map>}
-gpgpu_mem_addr_test                    0 # run sweep test to check address mapping for aliased address
-gpgpu_mem_address_mask                    1 # 0 = old addressing mask, 1 = new addressing mask, 2 = new add. mask + flipped bank sel and chip sel bits
-gpuwattch_xml_file         gpuwattch.xml # GPUWattch XML file
-power_simulation_enabled                    1 # Turn on power simulator (1=On, 0=Off)
-power_per_cycle_dump                    0 # Dump detailed power output each cycle
-power_trace_enabled                    1 # produce a file for the power trace (1=On, 0=Off)
-power_trace_zlevel                     6 # Compression level of the power trace output log (0=no comp, 9=highest)
-steady_power_levels_enabled                    0 # produce a file for the steady power levels (1=On, 0=Off)
-steady_state_definition                  8:4 # allowed deviation:number of samples
-gpgpu_max_cycle                        0 # terminates gpu simulation early (0 = no limit)
-gpgpu_max_insn                         0 # terminates gpu simulation early (0 = no limit)
-gpgpu_max_cta                          0 # terminates gpu simulation early (0 = no limit)
-gpgpu_runtime_stat                   500 # display runtime statistics such as dram utilization {<freq>:<flag>}
-gpgpu_flush_l1_cache                    0 # Flush L1 cache at the end of each kernel call
-gpgpu_flush_l2_cache                    0 # Flush L2 cache at the end of each kernel call
-gpgpu_deadlock_detect                    1 # Stop the simulation at deadlock (1=on (default), 0=off)
-gpgpu_ptx_instruction_classification                    0 # if enabled will classify ptx instruction types per kernel (Max 255 kernels now)
-gpgpu_ptx_sim_mode                     0 # Select between Performance (default) or Functional simulation (1)
-gpgpu_clock_domains 500.0:1000.0:500.0:900.0 # Clock Domain Frequencies in MhZ {<Core Clock>:<ICNT Clock>:<L2 Clock>:<DRAM Clock>}
-gpgpu_max_concurrent_kernel                    8 # maximum kernels that can run concurrently on GPU
-gpgpu_cflog_interval                    0 # Interval between each snapshot in control flow logger
-visualizer_enabled                     0 # Turn on visualizer output (1=On, 0=Off)
-visualizer_outputfile                 NULL # Specifies the output log file for visualizer
-visualizer_zlevel                      6 # Compression level of the visualizer output log (0=no comp, 9=highest)
-trace_enabled                          0 # Turn on traces
-trace_components                    none # comma seperated list of traces to enable. Complete list found in trace_streams.tup. Default none
-trace_sampling_core                    0 # The core which is printed using CORE_DPRINTF. Default 0
-enable_ptx_file_line_stats                    1 # Turn on PTX source line statistic profiling. (1 = On)
-ptx_line_stats_filename gpgpu_inst_stats.txt # Output file for PTX source line statistics.
-save_embedded_ptx                      0 # saves ptx files embedded in binary as <n>.ptx
-keep                                   0 # keep intermediate files created by GPGPU-Sim when interfacing with external programs
-gpgpu_ptx_save_converted_ptxplus                    0 # Saved converted ptxplus to a file
-ptx_opcode_latency_int         4,13,4,5,145 # Opcode latencies for integers <ADD,MAX,MUL,MAD,DIV>Default 1,1,19,25,145
-ptx_opcode_latency_fp          4,13,4,5,39 # Opcode latencies for single precision floating points <ADD,MAX,MUL,MAD,DIV>Default 1,1,1,1,30
-ptx_opcode_latency_dp         8,19,8,8,330 # Opcode latencies for double precision floating points <ADD,MAX,MUL,MAD,DIV>Default 8,8,8,8,335
-ptx_opcode_initiation_int            1,2,2,1,8 # Opcode initiation intervals for integers <ADD,MAX,MUL,MAD,DIV>Default 1,1,4,4,32
-ptx_opcode_initiation_fp            1,2,1,1,4 # Opcode initiation intervals for single precision floating points <ADD,MAX,MUL,MAD,DIV>Default98352c2a6a407df91c078ab57770b94f  /tmp/tmp.lmI9NDZ5sV/lbm__SIZE1_1
 1,1,1,1,5
-ptx_opcode_initiation_dp         8,16,8,8,130 # Opcode initiation intervals for double precision floating points <ADD,MAX,MUL,MAD,DIV>Default 8,8,8,8,130
DRAM Timing Options:
nbk                                    16 # number of banks
CCD                                     2 # column to column delay
RRD                                     6 # minimal delay between activation of rows in different banks
RCD                                    12 # row to column delay
RAS                                    28 # time needed to activate row
RP                                     12 # time needed to precharge (deactivate) row
RC                                     40 # row cycle time
CDLR                                    5 # switching from write to read (changes tWTR)
WR                                     12 # last data-in to row precharge
CL                                     12 # CAS latency
WL                                      4 # Write latency
nbkgrp                                  4 # number of bank groups
CCDL                                    3 # column to column delay between accesses to different bank groups
RTPL                                    2 # read to precharge delay between accesses to different bank groups
addr_dec_mask[CHIP]  = 0000000000000000 	high:64 low:0
addr_dec_mask[BK]    = 000000000000f000 	high:16 low:12
addr_dec_mask[ROW]   = 000000000fff0000 	high:28 low:16
addr_dec_mask[COL]   = 0000000000000fff 	high:12 low:0
addr_dec_mask[BURST] = 000000000000003f 	high:6 low:0
*** Initializing Memory Statistics ***
self exe links to: /tmp/tmp.lmI9NDZ5sV/lbm__SIZE1_1
Running md5sum using "md5sum /tmp/tmp.lmI9NDZ5sV/lbm__SIZE1_1 "
Running cuobjdump using "$CUDA_INSTALL_PATH/bin/cuobjdump -ptx -elf -sass /tmp/tmp.lmI9NDZ5sV/lbm__SIZE1_1 > _cuobjdump_complete_output_EtCpzw"
Parsing file _cuobjdump_complete_output_EtCpzw
######### cuobjdump parser ########
## Adding new section PTX
Adding ptx filename: _cuobjdump_1.ptx
Adding arch: sm_13
Adding identifier: benchmarks/lbm/lbm.cu
## Adding new section ELF
Adding arch: sm_13
Adding identifier: benchmarks/lbm/lbm.cu
Done parsing!!!
Adding _cuobjdump_1.ptx with cubin handle 1
Running: cat _ptx_DomjgS | sed 's/.version 1.5/.version 1.4/' | sed 's/, texmode_independent//' | sed 's/\(\.extern \.const\[1\] .b8 \w\+\)\[\]/\1\[1\]/' | sed 's/const\[.\]/const\[0\]/g' > _ptx2_UlMdXd
LBM_allocateGrid: allocated 185.2 MByte
MAIN_printInfo:
	grid size      : 120 x 120 x 150 = 2.16 * 10^6 Cells
	nTimeSteps     : 2
	result file    : (null)
	action         : store
	simulation type: lid-driven cavity
	obstacle file  : /home/cnugteren/software/parboil-2.5/datasets/lbm/long/input/120_120_150_ldc.of

LBM_allocateGrid: allocated 185.2 MByte
LBM_allocateGrid: allocated 185.2 MByte
LBM_showGridStatistics:
	nObstacleCells:  343321 nAccelCells:   26912 nFluidCells: 1789767
	minRho:   1.0000 maxRho:   1.0000 mass: 2.160000e+06
	minU: 0.000000e+00 maxU: 0.000000e+00


kernel '_Z27performStreamCollide_kernelPfS_' transfer to GPU hardware scheduler
kernel_name = _Z27performStreamCollide_kernelPfS_ 
kernel_launch_uid = 1 
gpu_sim_cycle = 29530199
gpu_sim_insn = 565843056
gpu_ipc =      19.1615
gpu_tot_sim_cycle = 29530199
gpu_tot_sim_insn = 565843056
gpu_tot_ipc =      19.1615
gpu_tot_issued_cta = 0
gpu_stall_dramfull = 39522325
gpu_stall_icnt2sh    = 50991607
gpu_total_sim_rate=45133
Cache L1D_000:	Size = 16384 B (32 Set x 4-way x 128 byte line)
		Access = 1905000, Miss = 1421923 (0.746), PendingHit = 117151 (0.0615)
Cache L1D_001:	Size = 16384 B (32 Set x 4-way x 128 byte line)
		Access = 1902000, Miss = 1429498 (0.752), PendingHit = 115781 (0.0609)
Cache L1D_002:	Size = 16384 B (32 Set x 4-way x 128 byte line)
		Access = 1906500, Miss = 1423199 (0.746), PendingHit = 116324 (0.061)
Cache L1D_003:	Size = 16384 B (32 Set x 4-way x 128 byte line)
		Access = 1942500, Miss = 1390099 (0.716), PendingHit = 127349 (0.0656)
Cache L1D_004:	Size = 16384 B (32 Set x 4-way x 128 byte line)
		Access = 1923000, Miss = 1426492 (0.742), PendingHit = 119095 (0.0619)
Cache L1D_005:	Size = 16384 B (32 Set x 4-way x 128 byte line)
		Access = 1914000, Miss = 1427242 (0.746), PendingHit = 113997 (0.0596)
Cache L1D_006:	Size = 16384 B (32 Set x 4-way x 128 byte line)
		Access = 1947000, Miss = 1388576 (0.713), PendingHit = 116010 (0.0596)
Cache L1D_007:	Size = 16384 B (32 Set x 4-way x 128 byte line)
		Access = 1923000, Miss = 1391292 (0.724), PendingHit = 124799 (0.0649)
Cache L1D_008:	Size = 16384 B (32 Set x 4-way x 128 byte line)
		Access = 1923000, Miss = 1420542 (0.739), PendingHit = 122485 (0.0637)
Cache L1D_009:	Size = 16384 B (32 Set x 4-way x 128 byte line)
		Access = 1911000, Miss = 1425504 (0.746), PendingHit = 124013 (0.0649)
Cache L1D_010:	Size = 16384 B (32 Set x 4-way x 128 byte line)
		Access = 1947000, Miss = 1366060 (0.702), PendingHit = 124508 (0.0639)
Cache L1D_011:	Size = 16384 B (32 Set x 4-way x 128 byte line)
		Access = 1977000, Miss = 1340861 (0.678), PendingHit = 130066 (0.0658)
Cache L1D_012:	Size = 16384 B (32 Set x 4-way x 128 byte line)
		Access = 1921500, Miss = 1413427 (0.736), PendingHit = 117475 (0.0611)
Cache L1D_013:	Size = 16384 B (32 Set x 4-way x 128 byte line)
		Access = 1957500, Miss = 1358501 (0.694), PendingHit = 120721 (0.0617)
total_dl1_misses=19623216
total_dl1_accesses=27000000
total_dl1_miss_rate= 0.726786
Shader 0 dynamic_warp_id issue ditsribution:
dynamic_warp_id:
0, 1, 2, 3, 4, 5, 6, 7, 8, 9, 10, 11, 12, 13, 14, 15, 16, 17, 18, 19, 20, 21, 22, 23, 24, 25, 26, 27, 28, 29, 30, 31, 32, 33, 34, 35, 36, 37, 38, 39, 40, 41, 42, 43, 44, 45, 46, 47, 48, 49, 50, 51, 52, 53, 54, 55, 56, 57, 58, 59, 60, 61, 62, 63, 64, 65, 66, 67, 68, 69, 70, 71, 72, 73, 74, 75, 76, 77, 78, 79, 80, 81, 82, 83, 84, 85, 86, 87, 88, 89, 90, 91, 92, 93, 94, 95, 96, 97, 98, 99, 100, 101, 102, 103, 104, 105, 106, 107, 108, 109, 110, 111, 112, 113, 114, 115, 116, 117, 118, 119, 120, 121, 122, 123, 124, 125, 126, 127, 128, 129, 130, 131, 132, 133, 134, 135, 136, 137, 138, 139, 140, 141, 142, 143, 144, 145, 146, 147, 148, 149, 150, 151, 152, 153, 154, 155, 156, 157, 158, 159, 160, 161, 162, 163, 164, 165, 166, 167, 168, 169, 170, 171, 172, 173, 174, 175, 176, 177, 178, 179, 180, 181, 182, 183, 184, 185, 186, 187, 188, 189, 190, 191, 192, 193, 194, 195, 196, 197, 198, 199, 200, 201, 202, 203, 204, 205, 206, 207, 208, 209, 210, 211, 212, 213, 214, 215, 216, 217, 218, 219, 220, 221, 222, 223, 224, 225, 226, 227, 228, 229, 230, 231, 232, 233, 234, 235, 236, 237, 238, 239, 240, 241, 242, 243, 244, 245, 246, 247, 248, 249, 250, 251, 252, 253, 254, 255, 256, 257, 258, 259, 260, 261, 262, 263, 264, 265, 266, 267, 268, 269, 270, 271, 272, 273, 274, 275, 276, 277, 278, 279, 280, 281, 282, 283, 284, 285, 286, 287, 288, 289, 290, 291, 292, 293, 294, 295, 296, 297, 298, 299, 300, 301, 302, 303, 304, 305, 306, 307, 308, 309, 310, 311, 312, 313, 314, 315, 316, 317, 318, 319, 320, 321, 322, 323, 324, 325, 326, 327, 328, 329, 330, 331, 332, 333, 334, 335, 336, 337, 338, 339, 340, 341, 342, 343, 344, 345, 346, 347, 348, 349, 350, 351, 352, 353, 354, 355, 356, 357, 358, 359, 360, 361, 362, 363, 364, 365, 366, 367, 368, 369, 370, 371, 372, 373, 374, 375, 376, 377, 378, 379, 380, 381, 382, 383, 384, 385, 386, 387, 388, 389, 390, 391, 392, 393, 394, 395, 396, 397, 398, 399, 400, 401, 402, 403, 404, 405, 406, 407, 408, 409, 410, 411, 412, 413, 414, 415, 416, 417, 418, 419, 420, 421, 422, 423, 424, 425, 426, 427, 428, 429, 430, 431, 432, 433, 434, 435, 436, 437, 438, 439, 440, 441, 442, 443, 444, 445, 446, 447, 448, 449, 450, 451, 452, 453, 454, 455, 456, 457, 458, 459, 460, 461, 462, 463, 464, 465, 466, 467, 468, 469, 470, 471, 472, 473, 474, 475, 476, 477, 478, 479, 480, 481, 482, 483, 484, 485, 486, 487, 488, 489, 490, 491, 492, 493, 494, 495, 496, 497, 498, 499, 500, 501, 502, 503, 504, 505, 506, 507, 508, 509, 510, 511, 512, 513, 514, 515, 516, 517, 518, 519, 520, 521, 522, 523, 524, 525, 526, 527, 528, 529, 530, 531, 532, 533, 534, 535, 536, 537, 538, 539, 540, 541, 542, 543, 544, 545, 546, 547, 548, 549, 550, 551, 552, 553, 554, 555, 556, 557, 558, 559, 560, 561, 562, 563, 564, 565, 566, 567, 568, 569, 570, 571, 572, 573, 574, 575, 576, 577, 578, 579, 580, 581, 582, 583, 584, 585, 586, 587, 588, 589, 590, 591, 592, 593, 594, 595, 596, 597, 598, 599, 600, 601, 602, 603, 604, 605, 606, 607, 608, 609, 610, 611, 612, 613, 614, 615, 616, 617, 618, 619, 620, 621, 622, 623, 624, 625, 626, 627, 628, 629, 630, 631, 632, 633, 634, 635, 636, 637, 638, 639, 640, 641, 642, 643, 644, 645, 646, 647, 648, 649, 650, 651, 652, 653, 654, 655, 656, 657, 658, 659, 660, 661, 662, 663, 664, 665, 666, 667, 668, 669, 670, 671, 672, 673, 674, 675, 676, 677, 678, 679, 680, 681, 682, 683, 684, 685, 686, 687, 688, 689, 690, 691, 692, 693, 694, 695, 696, 697, 698, 699, 700, 701, 702, 703, 704, 705, 706, 707, 708, 709, 710, 711, 712, 713, 714, 715, 716, 717, 718, 719, 720, 721, 722, 723, 724, 725, 726, 727, 728, 729, 730, 731, 732, 733, 734, 735, 736, 737, 738, 739, 740, 741, 742, 743, 744, 745, 746, 747, 748, 749, 750, 751, 752, 753, 754, 755, 756, 757, 758, 759, 760, 761, 762, 763, 764, 765, 766, 767, 768, 769, 770, 771, 772, 773, 774, 775, 776, 777, 778, 779, 780, 781, 782, 783, 784, 785, 786, 787, 788, 789, 790, 791, 792, 793, 794, 795, 796, 797, 798, 799, 800, 801, 802, 803, 804, 805, 806, 807, 808, 809, 810, 811, 812, 813, 814, 815, 816, 817, 818, 819, 820, 821, 822, 823, 824, 825, 826, 827, 828, 829, 830, 831, 832, 833, 834, 835, 836, 837, 838, 839, 840, 841, 842, 843, 844, 845, 846, 847, 848, 849, 850, 851, 852, 853, 854, 855, 856, 857, 858, 859, 860, 861, 862, 863, 864, 865, 866, 867, 868, 869, 870, 871, 872, 873, 874, 875, 876, 877, 878, 879, 880, 881, 882, 883, 884, 885, 886, 887, 888, 889, 890, 891, 892, 893, 894, 895, 896, 897, 898, 899, 900, 901, 902, 903, 904, 905, 906, 907, 908, 909, 910, 911, 912, 913, 914, 915, 916, 917, 918, 919, 920, 921, 922, 923, 924, 925, 926, 927, 928, 929, 930, 931, 932, 933, 934, 935, 936, 937, 938, 939, 940, 941, 942, 943, 944, 945, 946, 947, 948, 949, 950, 951, 952, 953, 954, 955, 956, 957, 958, 959, 960, 961, 962, 963, 964, 965, 966, 967, 968, 969, 970, 971, 972, 973, 974, 975, 976, 977, 978, 979, 980, 981, 982, 983, 984, 985, 986, 987, 988, 989, 990, 991, 992, 993, 994, 995, 996, 997, 998, 999, 1000, 1001, 1002, 1003, 1004, 1005, 1006, 1007, 1008, 1009, 1010, 1011, 1012, 1013, 1014, 1015, 1016, 1017, 1018, 1019, 1020, 1021, 1022, 1023, 1024, 1025, 1026, 1027, 1028, 1029, 1030, 1031, 1032, 1033, 1034, 1035, 1036, 1037, 1038, 1039, 1040, 1041, 1042, 1043, 1044, 1045, 1046, 1047, 1048, 1049, 1050, 1051, 1052, 1053, 1054, 1055, 1056, 1057, 1058, 1059, 1060, 1061, 1062, 1063, 1064, 1065, 1066, 1067, 1068, 1069, 1070, 1071, 1072, 1073, 1074, 1075, 1076, 1077, 1078, 1079, 1080, 1081, 1082, 1083, 1084, 1085, 1086, 1087, 1088, 1089, 1090, 1091, 1092, 1093, 1094, 1095, 1096, 1097, 1098, 1099, 1100, 1101, 1102, 1103, 1104, 1105, 1106, 1107, 1108, 1109, 1110, 1111, 1112, 1113, 1114, 1115, 1116, 1117, 1118, 1119, 1120, 1121, 1122, 1123, 1124, 1125, 1126, 1127, 1128, 1129, 1130, 1131, 1132, 1133, 1134, 1135, 1136, 1137, 1138, 1139, 1140, 1141, 1142, 1143, 1144, 1145, 1146, 1147, 1148, 1149, 1150, 1151, 1152, 1153, 1154, 1155, 1156, 1157, 1158, 1159, 1160, 1161, 1162, 1163, 1164, 1165, 1166, 1167, 1168, 1169, 1170, 1171, 1172, 1173, 1174, 1175, 1176, 1177, 1178, 1179, 1180, 1181, 1182, 1183, 1184, 1185, 1186, 1187, 1188, 1189, 1190, 1191, 1192, 1193, 1194, 1195, 1196, 1197, 1198, 1199, 1200, 1201, 1202, 1203, 1204, 1205, 1206, 1207, 1208, 1209, 1210, 1211, 1212, 1213, 1214, 1215, 1216, 1217, 1218, 1219, 1220, 1221, 1222, 1223, 1224, 1225, 1226, 1227, 1228, 1229, 1230, 1231, 1232, 1233, 1234, 1235, 1236, 1237, 1238, 1239, 1240, 1241, 1242, 1243, 1244, 1245, 1246, 1247, 1248, 1249, 1250, 1251, 1252, 1253, 1254, 1255, 1256, 1257, 1258, 1259, 1260, 1261, 1262, 1263, 1264, 1265, 1266, 1267, 1268, 1269, 1270, 1271, 1272, 1273, 1274, 1275, 1276, 1277, 1278, 1279, 1280, 1281, 1282, 1283, 1284, 1285, 1286, 1287, 1288, 1289, 1290, 1291, 1292, 1293, 1294, 1295, 1296, 1297, 1298, 1299, 1300, 1301, 1302, 1303, 1304, 1305, 1306, 1307, 1308, 1309, 1310, 1311, 1312, 1313, 1314, 1315, 1316, 1317, 1318, 1319, 1320, 1321, 1322, 1323, 1324, 1325, 1326, 1327, 1328, 1329, 1330, 1331, 1332, 1333, 1334, 1335, 1336, 1337, 1338, 1339, 1340, 1341, 1342, 1343, 1344, 1345, 1346, 1347, 1348, 1349, 1350, 1351, 1352, 1353, 1354, 1355, 1356, 1357, 1358, 1359, 1360, 1361, 1362, 1363, 1364, 1365, 1366, 1367, 1368, 1369, 1370, 1371, 1372, 1373, 1374, 1375, 1376, 1377, 1378, 1379, 1380, 1381, 1382, 1383, 1384, 1385, 1386, 1387, 1388, 1389, 1390, 1391, 1392, 1393, 1394, 1395, 1396, 1397, 1398, 1399, 1400, 1401, 1402, 1403, 1404, 1405, 1406, 1407, 1408, 1409, 1410, 1411, 1412, 1413, 1414, 1415, 1416, 1417, 1418, 1419, 1420, 1421, 1422, 1423, 1424, 1425, 1426, 1427, 1428, 1429, 1430, 1431, 1432, 1433, 1434, 1435, 1436, 1437, 1438, 1439, 1440, 1441, 1442, 1443, 1444, 1445, 1446, 1447, 1448, 1449, 1450, 1451, 1452, 1453, 1454, 1455, 1456, 1457, 1458, 1459, 1460, 1461, 1462, 1463, 1464, 1465, 1466, 1467, 1468, 1469, 1470, 1471, 1472, 1473, 1474, 1475, 1476, 1477, 1478, 1479, 1480, 1481, 1482, 1483, 1484, 1485, 1486, 1487, 1488, 1489, 1490, 1491, 1492, 1493, 1494, 1495, 1496, 1497, 1498, 1499, 1500, 1501, 1502, 1503, 1504, 1505, 1506, 1507, 1508, 1509, 1510, 1511, 1512, 1513, 1514, 1515, 1516, 1517, 1518, 1519, 1520, 1521, 1522, 1523, 1524, 1525, 1526, 1527, 1528, 1529, 1530, 1531, 1532, 1533, 1534, 1535, 1536, 1537, 1538, 1539, 1540, 1541, 1542, 1543, 1544, 1545, 1546, 1547, 1548, 1549, 1550, 1551, 1552, 1553, 1554, 1555, 1556, 1557, 1558, 1559, 1560, 1561, 1562, 1563, 1564, 1565, 1566, 1567, 1568, 1569, 1570, 1571, 1572, 1573, 1574, 1575, 1576, 1577, 1578, 1579, 1580, 1581, 1582, 1583, 1584, 1585, 1586, 1587, 1588, 1589, 1590, 1591, 1592, 1593, 1594, 1595, 1596, 1597, 1598, 1599, 1600, 1601, 1602, 1603, 1604, 1605, 1606, 1607, 1608, 1609, 1610, 1611, 1612, 1613, 1614, 1615, 1616, 1617, 1618, 1619, 1620, 1621, 1622, 1623, 1624, 1625, 1626, 1627, 1628, 1629, 1630, 1631, 1632, 1633, 1634, 1635, 1636, 1637, 1638, 1639, 1640, 1641, 1642, 1643, 1644, 1645, 1646, 1647, 1648, 1649, 1650, 1651, 1652, 1653, 1654, 1655, 1656, 1657, 1658, 1659, 1660, 1661, 1662, 1663, 1664, 1665, 1666, 1667, 1668, 1669, 1670, 1671, 1672, 1673, 1674, 1675, 1676, 1677, 1678, 1679, 1680, 1681, 1682, 1683, 1684, 1685, 1686, 1687, 1688, 1689, 1690, 1691, 1692, 1693, 1694, 1695, 1696, 1697, 1698, 1699, 1700, 1701, 1702, 1703, 1704, 1705, 1706, 1707, 1708, 1709, 1710, 1711, 1712, 1713, 1714, 1715, 1716, 1717, 1718, 1719, 1720, 1721, 1722, 1723, 1724, 1725, 1726, 1727, 1728, 1729, 1730, 1731, 1732, 1733, 1734, 1735, 1736, 1737, 1738, 1739, 1740, 1741, 1742, 1743, 1744, 1745, 1746, 1747, 1748, 1749, 1750, 1751, 1752, 1753, 1754, 1755, 1756, 1757, 1758, 1759, 1760, 1761, 1762, 1763, 1764, 1765, 1766, 1767, 1768, 1769, 1770, 1771, 1772, 1773, 1774, 1775, 1776, 1777, 1778, 1779, 1780, 1781, 1782, 1783, 1784, 1785, 1786, 1787, 1788, 1789, 1790, 1791, 1792, 1793, 1794, 1795, 1796, 1797, 1798, 1799, 1800, 1801, 1802, 1803, 1804, 1805, 1806, 1807, 1808, 1809, 1810, 1811, 1812, 1813, 1814, 1815, 1816, 1817, 1818, 1819, 1820, 1821, 1822, 1823, 1824, 1825, 1826, 1827, 1828, 1829, 1830, 1831, 1832, 1833, 1834, 1835, 1836, 1837, 1838, 1839, 1840, 1841, 1842, 1843, 1844, 1845, 1846, 1847, 1848, 1849, 1850, 1851, 1852, 1853, 1854, 1855, 1856, 1857, 1858, 1859, 1860, 1861, 1862, 1863, 1864, 1865, 1866, 1867, 1868, 1869, 1870, 1871, 1872, 1873, 1874, 1875, 1876, 1877, 1878, 1879, 1880, 1881, 1882, 1883, 1884, 1885, 1886, 1887, 1888, 1889, 1890, 1891, 1892, 1893, 1894, 1895, 1896, 1897, 1898, 1899, 1900, 1901, 1902, 1903, 1904, 1905, 1906, 1907, 1908, 1909, 1910, 1911, 1912, 1913, 1914, 1915, 1916, 1917, 1918, 1919, 1920, 1921, 1922, 1923, 1924, 1925, 1926, 1927, 1928, 1929, 1930, 1931, 1932, 1933, 1934, 1935, 1936, 1937, 1938, 1939, 1940, 1941, 1942, 1943, 1944, 1945, 1946, 1947, 1948, 1949, 1950, 1951, 1952, 1953, 1954, 1955, 1956, 1957, 1958, 1959, 1960, 1961, 1962, 1963, 1964, 1965, 1966, 1967, 1968, 1969, 1970, 1971, 1972, 1973, 1974, 1975, 1976, 1977, 1978, 1979, 1980, 1981, 1982, 1983, 1984, 1985, 1986, 1987, 1988, 1989, 1990, 1991, 1992, 1993, 1994, 1995, 1996, 1997, 1998, 1999, 2000, 2001, 2002, 2003, 2004, 2005, 2006, 2007, 2008, 2009, 2010, 2011, 2012, 2013, 2014, 2015, 2016, 2017, 2018, 2019, 2020, 2021, 2022, 2023, 2024, 2025, 2026, 2027, 2028, 2029, 2030, 2031, 2032, 2033, 2034, 2035, 2036, 2037, 2038, 2039, 2040, 2041, 2042, 2043, 2044, 2045, 2046, 2047, 2048, 2049, 2050, 2051, 2052, 2053, 2054, 2055, 2056, 2057, 2058, 2059, 2060, 2061, 2062, 2063, 2064, 2065, 2066, 2067, 2068, 2069, 2070, 2071, 2072, 2073, 2074, 2075, 2076, 2077, 2078, 2079, 2080, 2081, 2082, 2083, 2084, 2085, 2086, 2087, 2088, 2089, 2090, 2091, 2092, 2093, 2094, 2095, 2096, 2097, 2098, 2099, 2100, 2101, 2102, 2103, 2104, 2105, 2106, 2107, 2108, 2109, 2110, 2111, 2112, 2113, 2114, 2115, 2116, 2117, 2118, 2119, 2120, 2121, 2122, 2123, 2124, 2125, 2126, 2127, 2128, 2129, 2130, 2131, 2132, 2133, 2134, 2135, 2136, 2137, 2138, 2139, 2140, 2141, 2142, 2143, 2144, 2145, 2146, 2147, 2148, 2149, 2150, 2151, 2152, 2153, 2154, 2155, 2156, 2157, 2158, 2159, 2160, 2161, 2162, 2163, 2164, 2165, 2166, 2167, 2168, 2169, 2170, 2171, 2172, 2173, 2174, 2175, 2176, 2177, 2178, 2179, 2180, 2181, 2182, 2183, 2184, 2185, 2186, 2187, 2188, 2189, 2190, 2191, 2192, 2193, 2194, 2195, 2196, 2197, 2198, 2199, 2200, 2201, 2202, 2203, 2204, 2205, 2206, 2207, 2208, 2209, 2210, 2211, 2212, 2213, 2214, 2215, 2216, 2217, 2218, 2219, 2220, 2221, 2222, 2223, 2224, 2225, 2226, 2227, 2228, 2229, 2230, 2231, 2232, 2233, 2234, 2235, 2236, 2237, 2238, 2239, 2240, 2241, 2242, 2243, 2244, 2245, 2246, 2247, 2248, 2249, 2250, 2251, 2252, 2253, 2254, 2255, 2256, 2257, 2258, 2259, 2260, 2261, 2262, 2263, 2264, 2265, 2266, 2267, 2268, 2269, 2270, 2271, 2272, 2273, 2274, 2275, 2276, 2277, 2278, 2279, 2280, 2281, 2282, 2283, 2284, 2285, 2286, 2287, 2288, 2289, 2290, 2291, 2292, 2293, 2294, 2295, 2296, 2297, 2298, 2299, 2300, 2301, 2302, 2303, 2304, 2305, 2306, 2307, 2308, 2309, 2310, 2311, 2312, 2313, 2314, 2315, 2316, 2317, 2318, 2319, 2320, 2321, 2322, 2323, 2324, 2325, 2326, 2327, 2328, 2329, 2330, 2331, 2332, 2333, 2334, 2335, 2336, 2337, 2338, 2339, 2340, 2341, 2342, 2343, 2344, 2345, 2346, 2347, 2348, 2349, 2350, 2351, 2352, 2353, 2354, 2355, 2356, 2357, 2358, 2359, 2360, 2361, 2362, 2363, 2364, 2365, 2366, 2367, 2368, 2369, 2370, 2371, 2372, 2373, 2374, 2375, 2376, 2377, 2378, 2379, 2380, 2381, 2382, 2383, 2384, 2385, 2386, 2387, 2388, 2389, 2390, 2391, 2392, 2393, 2394, 2395, 2396, 2397, 2398, 2399, 2400, 2401, 2402, 2403, 2404, 2405, 2406, 2407, 2408, 2409, 2410, 2411, 2412, 2413, 2414, 2415, 2416, 2417, 2418, 2419, 2420, 2421, 2422, 2423, 2424, 2425, 2426, 2427, 2428, 2429, 2430, 2431, 2432, 2433, 2434, 2435, 2436, 2437, 2438, 2439, 2440, 2441, 2442, 2443, 2444, 2445, 2446, 2447, 2448, 2449, 2450, 2451, 2452, 2453, 2454, 2455, 2456, 2457, 2458, 2459, 2460, 2461, 2462, 2463, 2464, 2465, 2466, 2467, 2468, 2469, 2470, 2471, 2472, 2473, 2474, 2475, 2476, 2477, 2478, 2479, 2480, 2481, 2482, 2483, 2484, 2485, 2486, 2487, 2488, 2489, 2490, 2491, 2492, 2493, 2494, 2495, 2496, 2497, 2498, 2499, 2500, 2501, 2502, 2503, 2504, 2505, 2506, 2507, 2508, 2509, 2510, 2511, 2512, 2513, 2514, 2515, 2516, 2517, 2518, 2519, 2520, 2521, 2522, 2523, 2524, 2525, 2526, 2527, 2528, 2529, 2530, 2531, 2532, 2533, 2534, 2535, 2536, 2537, 2538, 2539, 2540, 2541, 2542, 2543, 2544, 2545, 2546, 2547, 2548, 2549, 2550, 2551, 2552, 2553, 2554, 2555, 2556, 2557, 2558, 2559, 2560, 2561, 2562, 2563, 2564, 2565, 2566, 2567, 2568, 2569, 2570, 2571, 2572, 2573, 2574, 2575, 2576, 2577, 2578, 2579, 2580, 2581, 2582, 2583, 2584, 2585, 2586, 2587, 2588, 2589, 2590, 2591, 2592, 2593, 2594, 2595, 2596, 2597, 2598, 2599, 2600, 2601, 2602, 2603, 2604, 2605, 2606, 2607, 2608, 2609, 2610, 2611, 2612, 2613, 2614, 2615, 2616, 2617, 2618, 2619, 2620, 2621, 2622, 2623, 2624, 2625, 2626, 2627, 2628, 2629, 2630, 2631, 2632, 2633, 2634, 2635, 2636, 2637, 2638, 2639, 2640, 2641, 2642, 2643, 2644, 2645, 2646, 2647, 2648, 2649, 2650, 2651, 2652, 2653, 2654, 2655, 2656, 2657, 2658, 2659, 2660, 2661, 2662, 2663, 2664, 2665, 2666, 2667, 2668, 2669, 2670, 2671, 2672, 2673, 2674, 2675, 2676, 2677, 2678, 2679, 2680, 2681, 2682, 2683, 2684, 2685, 2686, 2687, 2688, 2689, 2690, 2691, 2692, 2693, 2694, 2695, 2696, 2697, 2698, 2699, 2700, 2701, 2702, 2703, 2704, 2705, 2706, 2707, 2708, 2709, 2710, 2711, 2712, 2713, 2714, 2715, 2716, 2717, 2718, 2719, 2720, 2721, 2722, 2723, 2724, 2725, 2726, 2727, 2728, 2729, 2730, 2731, 2732, 2733, 2734, 2735, 2736, 2737, 2738, 2739, 2740, 2741, 2742, 2743, 2744, 2745, 2746, 2747, 2748, 2749, 2750, 2751, 2752, 2753, 2754, 2755, 2756, 2757, 2758, 2759, 2760, 2761, 2762, 2763, 2764, 2765, 2766, 2767, 2768, 2769, 2770, 2771, 2772, 2773, 2774, 2775, 2776, 2777, 2778, 2779, 2780, 2781, 2782, 2783, 2784, 2785, 2786, 2787, 2788, 2789, 2790, 2791, 2792, 2793, 2794, 2795, 2796, 2797, 2798, 2799, 2800, 2801, 2802, 2803, 2804, 2805, 2806, 2807, 2808, 2809, 2810, 2811, 2812, 2813, 2814, 2815, 2816, 2817, 2818, 2819, 2820, 2821, 2822, 2823, 2824, 2825, 2826, 2827, 2828, 2829, 2830, 2831, 2832, 2833, 2834, 2835, 2836, 2837, 2838, 2839, 2840, 2841, 2842, 2843, 2844, 2845, 2846, 2847, 2848, 2849, 2850, 2851, 2852, 2853, 2854, 2855, 2856, 2857, 2858, 2859, 2860, 2861, 2862, 2863, 2864, 2865, 2866, 2867, 2868, 2869, 2870, 2871, 2872, 2873, 2874, 2875, 2876, 2877, 2878, 2879, 2880, 2881, 2882, 2883, 2884, 2885, 2886, 2887, 2888, 2889, 2890, 2891, 2892, 2893, 2894, 2895, 2896, 2897, 2898, 2899, 2900, 2901, 2902, 2903, 2904, 2905, 2906, 2907, 2908, 2909, 2910, 2911, 2912, 2913, 2914, 2915, 2916, 2917, 2918, 2919, 2920, 2921, 2922, 2923, 2924, 2925, 2926, 2927, 2928, 2929, 2930, 2931, 2932, 2933, 2934, 2935, 2936, 2937, 2938, 2939, 2940, 2941, 2942, 2943, 2944, 2945, 2946, 2947, 2948, 2949, 2950, 2951, 2952, 2953, 2954, 2955, 2956, 2957, 2958, 2959, 2960, 2961, 2962, 2963, 2964, 2965, 2966, 2967, 2968, 2969, 2970, 2971, 2972, 2973, 2974, 2975, 2976, 2977, 2978, 2979, 2980, 2981, 2982, 2983, 2984, 2985, 2986, 2987, 2988, 2989, 2990, 2991, 2992, 2993, 2994, 2995, 2996, 2997, 2998, 2999, 3000, 3001, 3002, 3003, 3004, 3005, 3006, 3007, 3008, 3009, 3010, 3011, 3012, 3013, 3014, 3015, 3016, 3017, 3018, 3019, 3020, 3021, 3022, 3023, 3024, 3025, 3026, 3027, 3028, 3029, 3030, 3031, 3032, 3033, 3034, 3035, 3036, 3037, 3038, 3039, 3040, 3041, 3042, 3043, 3044, 3045, 3046, 3047, 3048, 3049, 3050, 3051, 3052, 3053, 3054, 3055, 3056, 3057, 3058, 3059, 3060, 3061, 3062, 3063, 3064, 3065, 3066, 3067, 3068, 3069, 3070, 3071, 3072, 3073, 3074, 3075, 3076, 3077, 3078, 3079, 3080, 3081, 3082, 3083, 3084, 3085, 3086, 3087, 3088, 3089, 3090, 3091, 3092, 3093, 3094, 3095, 3096, 3097, 3098, 3099, 3100, 3101, 3102, 3103, 3104, 3105, 3106, 3107, 3108, 3109, 3110, 3111, 3112, 3113, 3114, 3115, 3116, 3117, 3118, 3119, 3120, 3121, 3122, 3123, 3124, 3125, 3126, 3127, 3128, 3129, 3130, 3131, 3132, 3133, 3134, 3135, 3136, 3137, 3138, 3139, 3140, 3141, 3142, 3143, 3144, 3145, 3146, 3147, 3148, 3149, 3150, 3151, 3152, 3153, 3154, 3155, 3156, 3157, 3158, 3159, 3160, 3161, 3162, 3163, 3164, 3165, 3166, 3167, 3168, 3169, 3170, 3171, 3172, 3173, 3174, 3175, 3176, 3177, 3178, 3179, 3180, 3181, 3182, 3183, 3184, 3185, 3186, 3187, 3188, 3189, 3190, 3191, 3192, 3193, 3194, 3195, 3196, 3197, 3198, 3199, 3200, 3201, 3202, 3203, 3204, 3205, 3206, 3207, 3208, 3209, 3210, 3211, 3212, 3213, 3214, 3215, 3216, 3217, 3218, 3219, 3220, 3221, 3222, 3223, 3224, 3225, 3226, 3227, 3228, 3229, 3230, 3231, 3232, 3233, 3234, 3235, 3236, 3237, 3238, 3239, 3240, 3241, 3242, 3243, 3244, 3245, 3246, 3247, 3248, 3249, 3250, 3251, 3252, 3253, 3254, 3255, 3256, 3257, 3258, 3259, 3260, 3261, 3262, 3263, 3264, 3265, 3266, 3267, 3268, 3269, 3270, 3271, 3272, 3273, 3274, 3275, 3276, 3277, 3278, 3279, 3280, 3281, 3282, 3283, 3284, 3285, 3286, 3287, 3288, 3289, 3290, 3291, 3292, 3293, 3294, 3295, 3296, 3297, 3298, 3299, 3300, 3301, 3302, 3303, 3304, 3305, 3306, 3307, 3308, 3309, 3310, 3311, 3312, 3313, 3314, 3315, 3316, 3317, 3318, 3319, 3320, 3321, 3322, 3323, 3324, 3325, 3326, 3327, 3328, 3329, 3330, 3331, 3332, 3333, 3334, 3335, 3336, 3337, 3338, 3339, 3340, 3341, 3342, 3343, 3344, 3345, 3346, 3347, 3348, 3349, 3350, 3351, 3352, 3353, 3354, 3355, 3356, 3357, 3358, 3359, 3360, 3361, 3362, 3363, 3364, 3365, 3366, 3367, 3368, 3369, 3370, 3371, 3372, 3373, 3374, 3375, 3376, 3377, 3378, 3379, 3380, 3381, 3382, 3383, 3384, 3385, 3386, 3387, 3388, 3389, 3390, 3391, 3392, 3393, 3394, 3395, 3396, 3397, 3398, 3399, 3400, 3401, 3402, 3403, 3404, 3405, 3406, 3407, 3408, 3409, 3410, 3411, 3412, 3413, 3414, 3415, 3416, 3417, 3418, 3419, 3420, 3421, 3422, 3423, 3424, 3425, 3426, 3427, 3428, 3429, 3430, 3431, 3432, 3433, 3434, 3435, 3436, 3437, 3438, 3439, 3440, 3441, 3442, 3443, 3444, 3445, 3446, 3447, 3448, 3449, 3450, 3451, 3452, 3453, 3454, 3455, 3456, 3457, 3458, 3459, 3460, 3461, 3462, 3463, 3464, 3465, 3466, 3467, 3468, 3469, 3470, 3471, 3472, 3473, 3474, 3475, 3476, 3477, 3478, 3479, 3480, 3481, 3482, 3483, 3484, 3485, 3486, 3487, 3488, 3489, 3490, 3491, 3492, 3493, 3494, 3495, 3496, 3497, 3498, 3499, 3500, 3501, 3502, 3503, 3504, 3505, 3506, 3507, 3508, 3509, 3510, 3511, 3512, 3513, 3514, 3515, 3516, 3517, 3518, 3519, 3520, 3521, 3522, 3523, 3524, 3525, 3526, 3527, 3528, 3529, 3530, 3531, 3532, 3533, 3534, 3535, 3536, 3537, 3538, 3539, 3540, 3541, 3542, 3543, 3544, 3545, 3546, 3547, 3548, 3549, 3550, 3551, 3552, 3553, 3554, 3555, 3556, 3557, 3558, 3559, 3560, 3561, 3562, 3563, 3564, 3565, 3566, 3567, 3568, 3569, 3570, 3571, 3572, 3573, 3574, 3575, 3576, 3577, 3578, 3579, 3580, 3581, 3582, 3583, 3584, 3585, 3586, 3587, 3588, 3589, 3590, 3591, 3592, 3593, 3594, 3595, 3596, 3597, 3598, 3599, 3600, 3601, 3602, 3603, 3604, 3605, 3606, 3607, 3608, 3609, 3610, 3611, 3612, 3613, 3614, 3615, 3616, 3617, 3618, 3619, 3620, 3621, 3622, 3623, 3624, 3625, 3626, 3627, 3628, 3629, 3630, 3631, 3632, 3633, 3634, 3635, 3636, 3637, 3638, 3639, 3640, 3641, 3642, 3643, 3644, 3645, 3646, 3647, 3648, 3649, 3650, 3651, 3652, 3653, 3654, 3655, 3656, 3657, 3658, 3659, 3660, 3661, 3662, 3663, 3664, 3665, 3666, 3667, 3668, 3669, 3670, 3671, 3672, 3673, 3674, 3675, 3676, 3677, 3678, 3679, 3680, 3681, 3682, 3683, 3684, 3685, 3686, 3687, 3688, 3689, 3690, 3691, 3692, 3693, 3694, 3695, 3696, 3697, 3698, 3699, 3700, 3701, 3702, 3703, 3704, 3705, 3706, 3707, 3708, 3709, 3710, 3711, 3712, 3713, 3714, 3715, 3716, 3717, 3718, 3719, 3720, 3721, 3722, 3723, 3724, 3725, 3726, 3727, 3728, 3729, 3730, 3731, 3732, 3733, 3734, 3735, 3736, 3737, 3738, 3739, 3740, 3741, 3742, 3743, 3744, 3745, 3746, 3747, 3748, 3749, 3750, 3751, 3752, 3753, 3754, 3755, 3756, 3757, 3758, 3759, 3760, 3761, 3762, 3763, 3764, 3765, 3766, 3767, 3768, 3769, 3770, 3771, 3772, 3773, 3774, 3775, 3776, 3777, 3778, 3779, 3780, 3781, 3782, 3783, 3784, 3785, 3786, 3787, 3788, 3789, 3790, 3791, 3792, 3793, 3794, 3795, 3796, 3797, 3798, 3799, 3800, 3801, 3802, 3803, 3804, 3805, 3806, 3807, 3808, 3809, 3810, 3811, 3812, 3813, 3814, 3815, 3816, 3817, 3818, 3819, 3820, 3821, 3822, 3823, 3824, 3825, 3826, 3827, 3828, 3829, 3830, 3831, 3832, 3833, 3834, 3835, 3836, 3837, 3838, 3839, 3840, 3841, 3842, 3843, 3844, 3845, 3846, 3847, 3848, 3849, 3850, 3851, 3852, 3853, 3854, 3855, 3856, 3857, 3858, 3859, 3860, 3861, 3862, 3863, 3864, 3865, 3866, 3867, 3868, 3869, 3870, 3871, 3872, 3873, 3874, 3875, 3876, 3877, 3878, 3879, 3880, 3881, 3882, 3883, 3884, 3885, 3886, 3887, 3888, 3889, 3890, 3891, 3892, 3893, 3894, 3895, 3896, 3897, 3898, 3899, 3900, 3901, 3902, 3903, 3904, 3905, 3906, 3907, 3908, 3909, 3910, 3911, 3912, 3913, 3914, 3915, 3916, 3917, 3918, 3919, 3920, 3921, 3922, 3923, 3924, 3925, 3926, 3927, 3928, 3929, 3930, 3931, 3932, 3933, 3934, 3935, 3936, 3937, 3938, 3939, 3940, 3941, 3942, 3943, 3944, 3945, 3946, 3947, 3948, 3949, 3950, 3951, 3952, 3953, 3954, 3955, 3956, 3957, 3958, 3959, 3960, 3961, 3962, 3963, 3964, 3965, 3966, 3967, 3968, 3969, 3970, 3971, 3972, 3973, 3974, 3975, 3976, 3977, 3978, 3979, 3980, 3981, 3982, 3983, 3984, 3985, 3986, 3987, 3988, 3989, 3990, 3991, 3992, 3993, 3994, 3995, 3996, 3997, 3998, 3999, 4000, 4001, 4002, 4003, 4004, 4005, 4006, 4007, 4008, 4009, 4010, 4011, 4012, 4013, 4014, 4015, 4016, 4017, 4018, 4019, 4020, 4021, 4022, 4023, 4024, 4025, 4026, 4027, 4028, 4029, 4030, 4031, 4032, 4033, 4034, 4035, 4036, 4037, 4038, 4039, 4040, 4041, 4042, 4043, 4044, 4045, 4046, 4047, 4048, 4049, 4050, 4051, 4052, 4053, 4054, 4055, 4056, 4057, 4058, 4059, 4060, 4061, 4062, 4063, 4064, 4065, 4066, 4067, 4068, 4069, 4070, 4071, 4072, 4073, 4074, 4075, 4076, 4077, 4078, 4079, 4080, 4081, 4082, 4083, 4084, 4085, 4086, 4087, 4088, 4089, 4090, 4091, 4092, 4093, 4094, 4095, 4096, 4097, 4098, 4099, 4100, 4101, 4102, 4103, 4104, 4105, 4106, 4107, 4108, 4109, 4110, 4111, 4112, 4113, 4114, 4115, 4116, 4117, 4118, 4119, 4120, 4121, 4122, 4123, 4124, 4125, 4126, 4127, 4128, 4129, 4130, 4131, 4132, 4133, 4134, 4135, 4136, 4137, 4138, 4139, 4140, 4141, 4142, 4143, 4144, 4145, 4146, 4147, 4148, 4149, 4150, 4151, 4152, 4153, 4154, 4155, 4156, 4157, 4158, 4159, 4160, 4161, 4162, 4163, 4164, 4165, 4166, 4167, 4168, 4169, 4170, 4171, 4172, 4173, 4174, 4175, 4176, 4177, 4178, 4179, 4180, 4181, 4182, 4183, 4184, 4185, 4186, 4187, 4188, 4189, 4190, 4191, 4192, 4193, 4194, 4195, 4196, 4197, 4198, 4199, 4200, 4201, 4202, 4203, 4204, 4205, 4206, 4207, 4208, 4209, 4210, 4211, 4212, 4213, 4214, 4215, 4216, 4217, 4218, 4219, 4220, 4221, 4222, 4223, 4224, 4225, 4226, 4227, 4228, 4229, 4230, 4231, 4232, 4233, 4234, 4235, 4236, 4237, 4238, 4239, 4240, 4241, 4242, 4243, 4244, 4245, 4246, 4247, 4248, 4249, 4250, 4251, 4252, 4253, 4254, 4255, 4256, 4257, 4258, 4259, 4260, 4261, 4262, 4263, 4264, 4265, 4266, 4267, 4268, 4269, 4270, 4271, 4272, 4273, 4274, 4275, 4276, 4277, 4278, 4279, 4280, 4281, 4282, 4283, 4284, 4285, 4286, 4287, 4288, 4289, 4290, 4291, 4292, 4293, 4294, 4295, 4296, 4297, 4298, 4299, 4300, 4301, 4302, 4303, 4304, 4305, 4306, 4307, 4308, 4309, 4310, 4311, 4312, 4313, 4314, 4315, 4316, 4317, 4318, 4319, 4320, 4321, 4322, 4323, 4324, 4325, 4326, 4327, 4328, 4329, 4330, 4331, 4332, 4333, 4334, 4335, 4336, 4337, 4338, 4339, 4340, 4341, 4342, 4343, 4344, 4345, 4346, 4347, 4348, 4349, 4350, 4351, 4352, 4353, 4354, 4355, 4356, 4357, 4358, 4359, 4360, 4361, 4362, 4363, 4364, 4365, 4366, 4367, 4368, 4369, 4370, 4371, 4372, 4373, 4374, 4375, 4376, 4377, 4378, 4379, 4380, 4381, 4382, 4383, 4384, 4385, 4386, 4387, 4388, 4389, 4390, 4391, 4392, 4393, 4394, 4395, 4396, 4397, 4398, 4399, 4400, 4401, 4402, 4403, 4404, 4405, 4406, 4407, 4408, 4409, 4410, 4411, 4412, 4413, 4414, 4415, 4416, 4417, 4418, 4419, 4420, 4421, 4422, 4423, 4424, 4425, 4426, 4427, 4428, 4429, 4430, 4431, 4432, 4433, 4434, 4435, 4436, 4437, 4438, 4439, 4440, 4441, 4442, 4443, 4444, 4445, 4446, 4447, 4448, 4449, 4450, 4451, 4452, 4453, 4454, 4455, 4456, 4457, 4458, 4459, 4460, 4461, 4462, 4463, 4464, 4465, 4466, 4467, 4468, 4469, 4470, 4471, 4472, 4473, 4474, 4475, 4476, 4477, 4478, 4479, 4480, 4481, 4482, 4483, 4484, 4485, 4486, 4487, 4488, 4489, 4490, 4491, 4492, 4493, 4494, 4495, 4496, 4497, 4498, 4499, 4500, 4501, 4502, 4503, 4504, 4505, 4506, 4507, 4508, 4509, 4510, 4511, 4512, 4513, 4514, 4515, 4516, 4517, 4518, 4519, 4520, 4521, 4522, 4523, 4524, 4525, 4526, 4527, 4528, 4529, 4530, 4531, 4532, 4533, 4534, 4535, 4536, 4537, 4538, 4539, 4540, 4541, 4542, 4543, 4544, 4545, 4546, 4547, 4548, 4549, 4550, 4551, 4552, 4553, 4554, 4555, 4556, 4557, 4558, 4559, 4560, 4561, 4562, 4563, 4564, 4565, 4566, 4567, 4568, 4569, 4570, 4571, 4572, 4573, 4574, 4575, 4576, 4577, 4578, 4579, 4580, 4581, 4582, 4583, 4584, 4585, 4586, 4587, 4588, 4589, 4590, 4591, 4592, 4593, 4594, 4595, 4596, 4597, 4598, 4599, 4600, 4601, 4602, 4603, 4604, 4605, 4606, 4607, 4608, 4609, 4610, 4611, 4612, 4613, 4614, 4615, 4616, 4617, 4618, 4619, 4620, 4621, 4622, 4623, 4624, 4625, 4626, 4627, 4628, 4629, 4630, 4631, 4632, 4633, 4634, 4635, 4636, 4637, 4638, 4639, 4640, 4641, 4642, 4643, 4644, 4645, 4646, 4647, 4648, 4649, 4650, 4651, 4652, 4653, 4654, 4655, 4656, 4657, 4658, 4659, 4660, 4661, 4662, 4663, 4664, 4665, 4666, 4667, 4668, 4669, 4670, 4671, 4672, 4673, 4674, 4675, 4676, 4677, 4678, 4679, 4680, 4681, 4682, 4683, 4684, 4685, 4686, 4687, 4688, 4689, 4690, 4691, 4692, 4693, 4694, 4695, 4696, 4697, 4698, 4699, 4700, 4701, 4702, 4703, 4704, 4705, 4706, 4707, 4708, 4709, 4710, 4711, 4712, 4713, 4714, 4715, 4716, 4717, 4718, 4719, 4720, 4721, 4722, 4723, 4724, 4725, 4726, 4727, 4728, 4729, 4730, 4731, 4732, 4733, 4734, 4735, 4736, 4737, 4738, 4739, 4740, 4741, 4742, 4743, 4744, 4745, 4746, 4747, 4748, 4749, 4750, 4751, 4752, 4753, 4754, 4755, 4756, 4757, 4758, 4759, 4760, 4761, 4762, 4763, 4764, 4765, 4766, 4767, 4768, 4769, 4770, 4771, 4772, 4773, 4774, 4775, 4776, 4777, 4778, 4779, 4780, 4781, 4782, 4783, 4784, 4785, 4786, 4787, 4788, 4789, 4790, 4791, 4792, 4793, 4794, 4795, 4796, 4797, 4798, 4799, 4800, 4801, 4802, 4803, 4804, 4805, 4806, 4807, 4808, 4809, 4810, 4811, 4812, 4813, 4814, 4815, 4816, 4817, 4818, 4819, 4820, 4821, 4822, 4823, 4824, 4825, 4826, 4827, 4828, 4829, 4830, 4831, 4832, 4833, 4834, 4835, 4836, 4837, 4838, 4839, 4840, 4841, 4842, 4843, 4844, 4845, 4846, 4847, 4848, 4849, 4850, 4851, 4852, 4853, 4854, 4855, 4856, 4857, 4858, 4859, 4860, 4861, 4862, 4863, 4864, 4865, 4866, 4867, 4868, 4869, 4870, 4871, 4872, 4873, 4874, 4875, 4876, 4877, 4878, 4879, 4880, 4881, 4882, 4883, 4884, 4885, 4886, 4887, 4888, 4889, 4890, 4891, 4892, 4893, 4894, 4895, 4896, 4897, 4898, 4899, 4900, 4901, 4902, 4903, 4904, 4905, 4906, 4907, 4908, 4909, 4910, 4911, 4912, 4913, 4914, 4915, 4916, 4917, 4918, 4919, 4920, 4921, 4922, 4923, 4924, 4925, 4926, 4927, 4928, 4929, 4930, 4931, 4932, 4933, 4934, 4935, 4936, 4937, 4938, 4939, 4940, 4941, 4942, 4943, 4944, 4945, 4946, 4947, 4948, 4949, 4950, 4951, 4952, 4953, 4954, 4955, 4956, 4957, 4958, 4959, 4960, 4961, 4962, 4963, 4964, 4965, 4966, 4967, 4968, 4969, 4970, 4971, 4972, 4973, 4974, 4975, 4976, 4977, 4978, 4979, 4980, 4981, 4982, 4983, 4984, 4985, 4986, 4987, 4988, 4989, 4990, 4991, 4992, 4993, 4994, 4995, 4996, 4997, 4998, 4999, 5000, 5001, 5002, 5003, 5004, 5005, 5006, 5007, 5008, 5009, 5010, 5011, 5012, 5013, 5014, 5015, 5016, 5017, 5018, 5019, 5020, 5021, 5022, 5023, 5024, 5025, 5026, 5027, 5028, 5029, 5030, 5031, 5032, 5033, 5034, 5035, 5036, 5037, 5038, 5039, 5040, 5041, 5042, 5043, 5044, 5045, 5046, 5047, 5048, 5049, 5050, 5051, 5052, 5053, 5054, 5055, 5056, 5057, 5058, 5059, 5060, 5061, 5062, 5063, 5064, 5065, 5066, 5067, 5068, 5069, 5070, 5071, 5072, 5073, 5074, 5075, 5076, 5077, 5078, 5079, 
distro:
88, 88, 88, 88, 88, 88, 88, 88, 88, 88, 88, 88, 88, 88, 88, 88, 88, 88, 88, 88, 88, 88, 88, 88, 88, 88, 88, 88, 88, 88, 88, 88, 317, 298, 298, 317, 317, 298, 298, 317, 317, 298, 298, 317, 317, 298, 298, 317, 317, 298, 298, 317, 317, 298, 298, 317, 317, 298, 298, 317, 314, 295, 295, 314, 314, 295, 295, 314, 314, 295, 295, 314, 314, 295, 295, 314, 314, 295, 295, 314, 314, 295, 295, 314, 314, 295, 295, 314, 314, 295, 295, 314, 314, 295, 295, 314, 314, 295, 295, 314, 314, 295, 295, 314, 314, 295, 295, 314, 314, 295, 295, 314, 314, 295, 295, 314, 314, 295, 295, 314, 314, 295, 295, 314, 314, 295, 295, 314, 314, 295, 295, 314, 314, 295, 295, 314, 314, 295, 295, 314, 314, 295, 295, 314, 314, 295, 295, 314, 314, 295, 295, 314, 314, 295, 295, 314, 314, 295, 295, 314, 314, 295, 295, 314, 314, 295, 295, 314, 314, 295, 295, 314, 314, 295, 295, 314, 314, 295, 295, 314, 314, 295, 295, 314, 314, 295, 295, 314, 314, 295, 295, 314, 314, 295, 295, 314, 314, 295, 295, 314, 314, 295, 295, 314, 314, 295, 295, 314, 314, 295, 295, 314, 314, 295, 295, 314, 314, 295, 295, 314, 314, 295, 295, 314, 314, 295, 295, 314, 314, 295, 295, 314, 314, 295, 295, 314, 314, 295, 295, 314, 314, 295, 295, 314, 314, 295, 295, 314, 314, 295, 295, 314, 314, 295, 295, 314, 314, 295, 295, 314, 314, 295, 295, 314, 314, 295, 295, 314, 314, 295, 295, 314, 314, 295, 295, 314, 314, 295, 295, 314, 314, 295, 295, 314, 314, 295, 295, 314, 314, 295, 295, 314, 314, 295, 295, 314, 314, 295, 295, 314, 314, 295, 295, 314, 314, 295, 295, 314, 314, 295, 295, 314, 314, 295, 295, 314, 314, 295, 295, 314, 314, 295, 295, 314, 314, 295, 295, 314, 314, 295, 295, 314, 88, 88, 88, 88, 314, 295, 295, 314, 314, 295, 295, 314, 314, 295, 295, 314, 314, 295, 295, 314, 314, 295, 295, 314, 314, 295, 295, 314, 314, 295, 295, 314, 314, 295, 295, 314, 314, 295, 295, 314, 314, 295, 295, 314, 314, 295, 295, 314, 314, 295, 295, 314, 314, 295, 295, 314, 314, 295, 295, 314, 314, 295, 295, 314, 314, 295, 295, 314, 314, 295, 295, 314, 314, 295, 295, 314, 314, 295, 295, 314, 314, 295, 295, 314, 314, 295, 295, 314, 314, 295, 295, 314, 314, 295, 295, 314, 314, 295, 295, 314, 314, 295, 295, 314, 314, 295, 295, 314, 314, 295, 295, 314, 314, 295, 295, 314, 314, 295, 295, 314, 314, 295, 295, 314, 88, 88, 88, 88, 88, 88, 88, 88, 314, 295, 295, 314, 314, 295, 295, 314, 314, 295, 295, 314, 314, 295, 295, 314, 314, 295, 295, 314, 314, 295, 295, 314, 314, 295, 295, 314, 314, 295, 295, 314, 314, 295, 295, 314, 314, 295, 295, 314, 314, 295, 295, 314, 314, 295, 295, 314, 314, 295, 295, 314, 314, 295, 295, 314, 314, 295, 295, 314, 314, 295, 295, 314, 314, 295, 295, 314, 314, 295, 295, 314, 314, 295, 295, 314, 314, 295, 295, 314, 314, 295, 295, 314, 314, 295, 295, 314, 314, 295, 295, 314, 314, 295, 295, 314, 314, 295, 295, 314, 314, 295, 295, 314, 314, 295, 295, 314, 314, 295, 295, 314, 314, 295, 295, 314, 314, 295, 295, 314, 314, 295, 295, 314, 314, 295, 295, 314, 314, 295, 295, 314, 314, 295, 295, 314, 314, 295, 295, 314, 314, 295, 295, 314, 314, 295, 295, 314, 88, 88, 88, 88, 314, 295, 295, 314, 314, 295, 295, 314, 314, 295, 295, 314, 314, 295, 295, 314, 314, 295, 295, 314, 314, 295, 295, 314, 314, 295, 295, 314, 314, 295, 295, 314, 314, 295, 295, 314, 314, 295, 295, 314, 314, 295, 295, 314, 314, 295, 295, 314, 314, 295, 295, 314, 314, 295, 295, 314, 314, 295, 295, 314, 314, 295, 295, 314, 314, 295, 295, 314, 314, 295, 295, 314, 314, 295, 295, 314, 314, 295, 295, 314, 314, 295, 295, 314, 314, 88, 314, 314, 314, 88, 314, 314, 314, 88, 314, 314, 314, 88, 314, 314, 314, 88, 314, 314, 314, 88, 314, 314, 314, 88, 314, 314, 314, 295, 295, 314, 314, 295, 295, 314, 314, 295, 295, 314, 314, 295, 295, 314, 314, 295, 295, 314, 314, 295, 295, 314, 314, 314, 295, 314, 314, 295, 295, 314, 314, 295, 295, 314, 314, 295, 295, 314, 314, 295, 295, 314, 314, 295, 295, 314, 314, 295, 295, 314, 314, 295, 295, 314, 314, 295, 295, 314, 314, 295, 295, 314, 314, 295, 295, 314, 314, 295, 295, 314, 314, 295, 295, 314, 88, 88, 88, 88, 88, 88, 88, 88, 314, 295, 295, 314, 314, 295, 295, 314, 314, 295, 295, 314, 314, 295, 295, 314, 314, 295, 295, 314, 314, 295, 295, 314, 314, 295, 295, 314, 314, 88, 314, 314, 314, 88, 314, 314, 314, 88, 314, 314, 314, 88, 314, 314, 314, 88, 314, 314, 314, 295, 295, 314, 314, 295, 295, 314, 314, 295, 295, 314, 314, 295, 295, 314, 314, 295, 295, 314, 314, 295, 295, 314, 88, 88, 88, 88, 314, 295, 295, 314, 314, 314, 295, 314, 314, 314, 295, 314, 314, 314, 295, 314, 314, 295, 295, 314, 314, 295, 295, 314, 314, 295, 295, 314, 314, 295, 295, 314, 314, 295, 295, 314, 314, 88, 314, 314, 314, 88, 314, 314, 314, 88, 314, 314, 314, 88, 314, 314, 314, 88, 314, 314, 314, 88, 314, 314, 314, 88, 314, 314, 314, 314, 295, 314, 314, 314, 295, 314, 314, 314, 295, 314, 314, 88, 314, 314, 314, 88, 314, 314, 314, 88, 314, 314, 314, 88, 314, 314, 314, 295, 295, 314, 314, 295, 295, 314, 314, 295, 295, 314, 314, 295, 295, 314, 314, 295, 295, 314, 314, 295, 295, 314, 314, 295, 295, 314, 314, 295, 295, 314, 314, 295, 295, 314, 314, 295, 295, 314, 314, 295, 295, 314, 314, 295, 295, 314, 314, 295, 295, 314, 314, 295, 295, 314, 314, 295, 295, 314, 314, 295, 295, 314, 314, 295, 295, 314, 314, 295, 295, 314, 314, 295, 295, 314, 314, 295, 295, 314, 314, 295, 295, 314, 314, 88, 314, 314, 314, 88, 314, 314, 314, 88, 314, 314, 314, 88, 314, 314, 314, 88, 314, 314, 314, 88, 314, 314, 314, 88, 314, 314, 314, 88, 314, 314, 314, 88, 314, 314, 314, 88, 314, 314, 314, 88, 314, 314, 314, 88, 314, 314, 314, 88, 314, 314, 314, 88, 314, 314, 314, 88, 314, 314, 314, 88, 314, 314, 314, 88, 314, 314, 314, 88, 314, 314, 314, 88, 314, 314, 314, 88, 314, 314, 314, 88, 314, 314, 314, 295, 295, 314, 314, 295, 295, 314, 314, 295, 295, 314, 314, 295, 295, 314, 314, 295, 295, 314, 314, 295, 295, 314, 314, 295, 295, 314, 88, 88, 88, 88, 314, 295, 295, 314, 314, 295, 295, 314, 314, 295, 295, 314, 314, 295, 295, 314, 314, 295, 295, 314, 314, 295, 295, 314, 314, 295, 295, 314, 314, 295, 295, 314, 314, 295, 295, 314, 314, 295, 295, 314, 314, 295, 295, 314, 314, 295, 295, 314, 314, 295, 295, 314, 314, 314, 295, 314, 314, 314, 295, 314, 314, 295, 295, 314, 314, 295, 295, 314, 314, 295, 295, 314, 314, 295, 295, 314, 314, 295, 295, 314, 314, 88, 314, 314, 314, 88, 314, 314, 314, 88, 314, 314, 314, 88, 314, 314, 314, 88, 314, 314, 314, 88, 314, 314, 314, 88, 314, 314, 314, 88, 314, 314, 314, 88, 314, 314, 314, 88, 314, 314, 314, 88, 314, 314, 314, 88, 314, 314, 314, 88, 314, 314, 314, 88, 314, 314, 314, 295, 295, 314, 314, 314, 295, 314, 314, 314, 295, 314, 314, 314, 295, 314, 314, 314, 295, 314, 314, 88, 314, 314, 314, 88, 314, 314, 314, 295, 295, 314, 314, 295, 295, 314, 314, 295, 295, 314, 314, 295, 295, 314, 314, 295, 295, 314, 314, 295, 295, 314, 314, 295, 295, 314, 314, 295, 295, 314, 314, 295, 295, 314, 314, 295, 295, 314, 314, 295, 295, 314, 314, 295, 295, 314, 314, 295, 295, 314, 314, 295, 295, 314, 314, 314, 295, 314, 314, 314, 295, 314, 314, 314, 295, 314, 314, 295, 295, 314, 314, 295, 295, 314, 314, 295, 295, 314, 314, 295, 295, 314, 314, 88, 314, 314, 314, 88, 314, 314, 314, 88, 314, 314, 314, 88, 314, 314, 314, 88, 314, 314, 314, 88, 314, 314, 314, 88, 314, 314, 314, 88, 314, 314, 314, 88, 314, 314, 314, 88, 314, 314, 314, 88, 314, 314, 314, 88, 314, 314, 314, 88, 314, 314, 314, 88, 314, 314, 314, 295, 295, 314, 314, 295, 295, 314, 314, 295, 295, 314, 314, 295, 295, 314, 314, 314, 295, 314, 314, 88, 314, 314, 314, 88, 314, 314, 314, 295, 295, 314, 314, 295, 295, 314, 314, 295, 295, 314, 314, 295, 295, 314, 314, 295, 295, 314, 314, 295, 295, 314, 314, 295, 295, 314, 314, 88, 314, 314, 314, 88, 314, 314, 314, 88, 314, 314, 314, 88, 314, 314, 314, 88, 314, 314, 314, 88, 314, 314, 314, 314, 295, 314, 314, 88, 314, 314, 314, 88, 314, 314, 314, 88, 314, 314, 314, 88, 314, 314, 314, 88, 314, 314, 314, 88, 314, 314, 314, 88, 314, 314, 314, 314, 295, 314, 314, 314, 295, 314, 314, 88, 314, 314, 314, 88, 314, 314, 314, 88, 314, 314, 314, 88, 314, 314, 314, 88, 314, 314, 314, 295, 295, 314, 314, 295, 295, 314, 314, 295, 295, 314, 314, 295, 295, 314, 314, 295, 295, 314, 314, 295, 295, 314, 88, 88, 88, 88, 314, 295, 295, 314, 314, 295, 295, 314, 314, 295, 295, 314, 314, 295, 295, 314, 314, 295, 295, 314, 314, 295, 295, 314, 314, 295, 295, 314, 314, 88, 314, 314, 314, 88, 314, 314, 314, 88, 314, 314, 314, 314, 295, 314, 314, 314, 295, 314, 314, 314, 295, 314, 314, 295, 295, 314, 314, 88, 314, 314, 314, 88, 314, 314, 314, 88, 314, 314, 314, 88, 314, 314, 314, 88, 314, 314, 314, 88, 314, 314, 314, 88, 314, 314, 314, 88, 314, 314, 314, 88, 314, 314, 314, 88, 314, 314, 314, 88, 314, 314, 314, 88, 314, 314, 314, 88, 314, 314, 314, 88, 314, 314, 314, 88, 314, 314, 314, 88, 314, 314, 314, 88, 314, 314, 314, 88, 314, 314, 314, 88, 314, 314, 314, 88, 314, 314, 314, 88, 314, 314, 314, 295, 295, 314, 314, 314, 295, 314, 314, 314, 295, 314, 314, 314, 295, 314, 314, 314, 295, 314, 314, 88, 314, 314, 314, 88, 314, 314, 314, 295, 295, 314, 314, 295, 295, 314, 314, 295, 295, 314, 314, 295, 295, 314, 88, 88, 88, 88, 88, 88, 88, 88, 314, 295, 295, 314, 314, 295, 295, 314, 314, 295, 295, 314, 314, 295, 295, 314, 314, 295, 295, 314, 314, 295, 295, 314, 314, 295, 295, 314, 314, 295, 295, 314, 314, 88, 314, 314, 314, 88, 314, 314, 314, 88, 314, 314, 314, 88, 314, 314, 314, 88, 314, 314, 314, 88, 314, 314, 314, 88, 314, 314, 314, 88, 314, 314, 314, 88, 314, 314, 314, 88, 314, 314, 314, 88, 314, 314, 314, 88, 314, 314, 314, 88, 314, 314, 314, 88, 314, 314, 314, 88, 314, 314, 314, 88, 314, 314, 314, 88, 314, 314, 314, 88, 314, 314, 314, 88, 314, 314, 314, 88, 314, 314, 314, 88, 314, 314, 88, 88, 88, 88, 88, 88, 88, 88, 314, 295, 295, 314, 314, 295, 295, 314, 314, 295, 295, 314, 314, 295, 295, 314, 314, 295, 295, 314, 314, 314, 295, 314, 314, 295, 295, 314, 314, 295, 295, 314, 314, 295, 295, 314, 314, 295, 295, 314, 314, 295, 295, 314, 314, 295, 295, 314, 314, 88, 314, 314, 314, 88, 314, 314, 314, 88, 314, 314, 314, 88, 314, 314, 314, 88, 314, 314, 314, 314, 295, 314, 314, 314, 295, 314, 314, 295, 295, 314, 314, 295, 295, 314, 314, 314, 295, 314, 314, 314, 295, 314, 314, 314, 295, 314, 314, 88, 314, 314, 314, 88, 314, 314, 314, 295, 295, 314, 88, 88, 88, 88, 88, 88, 88, 88, 314, 295, 295, 314, 314, 295, 295, 314, 314, 295, 295, 314, 314, 88, 314, 314, 314, 295, 295, 314, 314, 295, 295, 314, 314, 295, 295, 314, 314, 295, 295, 314, 314, 295, 295, 314, 314, 295, 295, 314, 314, 295, 295, 314, 314, 88, 314, 314, 314, 88, 314, 314, 314, 314, 295, 314, 314, 314, 295, 314, 314, 314, 295, 314, 314, 295, 295, 314, 314, 295, 295, 314, 314, 88, 314, 314, 314, 88, 314, 314, 314, 88, 314, 314, 314, 88, 314, 314, 314, 88, 314, 314, 314, 88, 314, 314, 314, 88, 314, 314, 314, 88, 314, 314, 314, 88, 314, 314, 314, 88, 314, 314, 314, 88, 314, 314, 314, 88, 314, 314, 314, 88, 314, 314, 314, 88, 314, 314, 314, 314, 295, 314, 314, 314, 295, 314, 314, 314, 295, 314, 314, 314, 295, 314, 314, 88, 314, 314, 314, 88, 314, 314, 314, 88, 314, 314, 314, 295, 295, 314, 314, 295, 295, 314, 314, 295, 295, 314, 314, 295, 295, 314, 314, 295, 295, 314, 314, 295, 295, 314, 314, 295, 295, 314, 314, 295, 295, 314, 314, 295, 295, 314, 314, 295, 295, 314, 314, 295, 295, 314, 314, 295, 295, 314, 314, 295, 295, 314, 314, 295, 295, 314, 314, 314, 295, 314, 314, 295, 295, 314, 314, 295, 295, 314, 314, 295, 295, 314, 314, 295, 295, 314, 314, 295, 295, 314, 314, 295, 295, 314, 314, 88, 314, 314, 314, 88, 314, 314, 314, 88, 314, 314, 314, 88, 314, 314, 314, 88, 314, 314, 314, 88, 314, 314, 314, 88, 314, 314, 314, 88, 314, 314, 314, 88, 314, 314, 314, 88, 314, 314, 314, 88, 314, 314, 314, 88, 314, 314, 314, 88, 314, 314, 314, 88, 314, 314, 314, 88, 314, 314, 314, 88, 314, 314, 314, 88, 314, 314, 314, 88, 314, 314, 314, 88, 314, 314, 314, 88, 314, 314, 314, 88, 314, 314, 314, 88, 314, 314, 314, 88, 314, 314, 314, 88, 314, 314, 314, 88, 314, 314, 314, 88, 314, 314, 314, 88, 314, 314, 314, 88, 314, 314, 314, 295, 295, 314, 314, 314, 295, 314, 314, 314, 295, 314, 314, 314, 295, 314, 314, 314, 295, 314, 314, 88, 314, 314, 314, 88, 314, 314, 314, 295, 295, 314, 314, 295, 295, 314, 314, 295, 295, 314, 314, 295, 295, 314, 314, 295, 295, 314, 314, 295, 295, 314, 314, 295, 295, 314, 314, 295, 295, 314, 314, 295, 295, 314, 314, 295, 295, 314, 314, 295, 295, 314, 314, 295, 295, 314, 314, 295, 295, 314, 314, 295, 295, 314, 314, 295, 295, 314, 314, 295, 295, 314, 314, 295, 295, 314, 314, 295, 295, 314, 314, 295, 295, 314, 314, 295, 295, 314, 314, 295, 295, 314, 314, 295, 295, 314, 314, 295, 295, 314, 314, 295, 295, 314, 314, 295, 295, 314, 314, 295, 295, 314, 314, 295, 295, 314, 314, 295, 295, 314, 314, 88, 314, 314, 314, 314, 295, 314, 314, 314, 295, 314, 314, 314, 295, 314, 314, 314, 295, 314, 314, 295, 295, 314, 314, 295, 295, 314, 314, 88, 314, 314, 314, 88, 314, 314, 314, 88, 314, 314, 314, 88, 314, 314, 314, 88, 314, 314, 314, 88, 314, 314, 314, 295, 295, 314, 314, 88, 314, 314, 314, 88, 314, 314, 314, 88, 314, 314, 314, 88, 314, 314, 314, 88, 314, 314, 314, 88, 314, 314, 314, 88, 314, 314, 314, 88, 314, 314, 314, 88, 314, 314, 314, 88, 314, 314, 314, 88, 314, 314, 314, 88, 314, 314, 314, 88, 314, 314, 314, 88, 314, 314, 314, 295, 295, 314, 314, 295, 295, 314, 314, 295, 295, 314, 314, 295, 295, 314, 314, 295, 295, 314, 314, 295, 295, 314, 314, 295, 295, 314, 314, 295, 295, 314, 314, 295, 295, 314, 314, 295, 295, 314, 314, 295, 295, 314, 314, 295, 295, 314, 314, 295, 295, 314, 314, 295, 295, 314, 314, 88, 314, 314, 314, 88, 314, 314, 314, 314, 295, 314, 314, 314, 295, 314, 314, 314, 295, 314, 314, 314, 295, 314, 314, 295, 295, 314, 314, 88, 314, 314, 314, 88, 314, 314, 314, 88, 314, 314, 314, 88, 314, 314, 314, 88, 314, 314, 314, 88, 314, 314, 314, 88, 314, 314, 314, 88, 314, 314, 314, 88, 314, 314, 314, 88, 314, 314, 314, 88, 314, 314, 314, 88, 314, 314, 314, 88, 314, 314, 314, 88, 314, 314, 314, 314, 295, 314, 314, 314, 295, 314, 314, 314, 295, 314, 314, 88, 314, 314, 314, 88, 314, 314, 314, 88, 314, 314, 314, 88, 314, 314, 314, 295, 295, 314, 314, 295, 295, 314, 314, 295, 295, 314, 314, 295, 295, 314, 314, 295, 295, 314, 314, 295, 295, 314, 314, 314, 295, 314, 314, 295, 295, 314, 314, 295, 295, 314, 314, 295, 295, 314, 314, 295, 295, 314, 314, 295, 295, 314, 314, 295, 295, 314, 314, 295, 295, 314, 314, 295, 295, 314, 314, 295, 295, 314, 314, 295, 295, 314, 314, 295, 295, 314, 314, 295, 295, 314, 314, 295, 295, 314, 314, 295, 295, 314, 314, 295, 295, 314, 314, 295, 295, 314, 314, 295, 295, 314, 314, 295, 295, 314, 314, 295, 295, 314, 314, 295, 295, 314, 314, 295, 295, 314, 314, 88, 314, 314, 314, 88, 314, 314, 314, 88, 314, 314, 314, 88, 314, 314, 314, 88, 314, 314, 314, 314, 295, 314, 314, 314, 295, 314, 314, 88, 314, 314, 314, 88, 314, 314, 314, 88, 314, 314, 314, 88, 314, 314, 314, 88, 314, 314, 314, 88, 314, 314, 314, 88, 314, 314, 314, 88, 314, 314, 314, 88, 314, 314, 314, 88, 314, 314, 314, 88, 314, 314, 314, 88, 314, 314, 314, 88, 314, 314, 314, 88, 314, 314, 314, 295, 295, 314, 314, 295, 295, 314, 314, 295, 295, 314, 314, 295, 295, 314, 314, 295, 295, 314, 314, 295, 295, 314, 314, 295, 295, 314, 314, 295, 295, 314, 314, 295, 295, 314, 314, 295, 295, 314, 314, 295, 295, 314, 314, 295, 295, 314, 314, 295, 295, 314, 88, 88, 88, 88, 314, 295, 295, 314, 314, 295, 295, 314, 314, 295, 295, 314, 314, 295, 295, 314, 314, 295, 295, 314, 314, 295, 295, 314, 314, 295, 295, 314, 314, 314, 295, 314, 314, 314, 295, 314, 314, 314, 295, 314, 314, 314, 295, 314, 314, 295, 295, 314, 314, 295, 295, 314, 314, 295, 295, 314, 314, 88, 314, 314, 314, 88, 314, 314, 314, 88, 314, 314, 314, 88, 314, 314, 314, 88, 314, 314, 314, 88, 314, 314, 314, 88, 314, 314, 314, 295, 295, 314, 314, 295, 295, 314, 314, 295, 295, 314, 314, 295, 295, 314, 314, 295, 295, 314, 314, 295, 295, 314, 314, 295, 295, 314, 314, 295, 295, 314, 314, 295, 295, 314, 314, 295, 295, 314, 88, 88, 88, 88, 88, 88, 88, 88, 314, 295, 295, 314, 314, 295, 295, 314, 314, 295, 295, 314, 314, 295, 295, 314, 314, 295, 295, 314, 314, 295, 295, 314, 314, 295, 295, 314, 314, 295, 295, 314, 314, 295, 295, 314, 314, 314, 295, 314, 314, 314, 295, 314, 314, 314, 295, 314, 314, 314, 295, 314, 314, 295, 295, 314, 314, 295, 295, 314, 314, 295, 295, 314, 314, 314, 295, 314, 314, 314, 295, 314, 314, 88, 314, 314, 314, 88, 314, 314, 314, 88, 314, 314, 314, 88, 314, 314, 314, 88, 314, 314, 314, 295, 295, 314, 314, 295, 295, 314, 314, 295, 295, 314, 314, 295, 295, 314, 314, 295, 295, 314, 314, 295, 295, 314, 314, 295, 295, 314, 88, 88, 88, 88, 88, 88, 88, 88, 314, 295, 295, 314, 314, 295, 295, 314, 314, 295, 295, 314, 314, 295, 295, 314, 314, 295, 295, 314, 314, 295, 295, 314, 314, 295, 295, 314, 314, 295, 295, 314, 314, 295, 295, 314, 314, 295, 295, 314, 314, 295, 295, 314, 314, 295, 295, 314, 314, 314, 295, 314, 314, 295, 295, 314, 314, 295, 295, 314, 314, 295, 295, 314, 314, 295, 295, 314, 314, 295, 295, 314, 314, 295, 295, 314, 314, 314, 295, 314, 314, 314, 295, 314, 314, 314, 295, 314, 314, 314, 295, 314, 314, 314, 295, 314, 314, 314, 295, 314, 314, 314, 295, 314, 314, 295, 295, 314, 314, 295, 295, 314, 314, 295, 295, 314, 314, 295, 295, 314, 314, 295, 295, 314, 314, 295, 295, 314, 314, 295, 295, 314, 314, 295, 295, 314, 314, 295, 295, 314, 314, 295, 295, 314, 314, 295, 295, 314, 314, 295, 295, 314, 314, 295, 295, 314, 314, 295, 295, 314, 314, 295, 295, 314, 314, 295, 295, 314, 314, 295, 295, 314, 314, 295, 295, 314, 314, 295, 295, 314, 314, 295, 295, 314, 314, 295, 295, 314, 314, 295, 295, 314, 314, 295, 295, 314, 314, 295, 295, 314, 314, 295, 295, 314, 314, 295, 295, 314, 314, 295, 295, 314, 314, 295, 295, 314, 314, 295, 295, 314, 314, 295, 295, 314, 314, 295, 295, 314, 314, 295, 295, 314, 314, 295, 295, 314, 314, 295, 295, 314, 314, 295, 295, 314, 314, 295, 295, 314, 314, 295, 295, 314, 314, 295, 295, 314, 314, 295, 295, 314, 314, 295, 295, 314, 314, 295, 295, 314, 314, 295, 295, 314, 314, 295, 295, 314, 314, 295, 295, 314, 314, 295, 295, 314, 314, 295, 295, 314, 314, 295, 295, 314, 314, 295, 295, 314, 314, 295, 295, 314, 314, 295, 295, 314, 314, 295, 295, 314, 314, 295, 295, 314, 314, 295, 295, 314, 314, 295, 295, 314, 314, 295, 295, 314, 314, 295, 295, 314, 314, 295, 295, 314, 314, 295, 295, 314, 314, 295, 295, 314, 314, 295, 295, 314, 314, 295, 295, 314, 314, 295, 295, 314, 314, 295, 295, 314, 314, 295, 295, 314, 314, 295, 295, 314, 314, 295, 295, 314, 314, 295, 295, 314, 314, 295, 295, 314, 314, 295, 295, 314, 314, 295, 295, 314, 314, 295, 295, 314, 314, 295, 295, 314, 314, 295, 295, 314, 314, 295, 295, 314, 314, 295, 295, 314, 314, 295, 295, 314, 314, 295, 295, 314, 314, 295, 295, 314, 314, 295, 295, 314, 314, 295, 295, 314, 314, 295, 295, 314, 314, 295, 295, 314, 314, 295, 295, 314, 314, 295, 295, 314, 314, 295, 295, 314, 314, 295, 295, 314, 314, 295, 295, 314, 314, 295, 295, 314, 314, 295, 295, 314, 314, 295, 295, 314, 314, 295, 295, 314, 314, 295, 295, 314, 314, 295, 295, 314, 314, 295, 295, 314, 314, 295, 295, 314, 314, 295, 295, 314, 314, 295, 295, 314, 314, 295, 295, 314, 314, 295, 295, 314, 314, 295, 295, 314, 314, 295, 295, 314, 314, 295, 295, 314, 314, 295, 295, 314, 314, 295, 295, 314, 314, 295, 295, 314, 314, 295, 295, 314, 314, 295, 295, 314, 314, 295, 295, 314, 314, 295, 295, 314, 314, 295, 295, 314, 314, 295, 295, 314, 314, 295, 295, 314, 314, 295, 295, 314, 314, 295, 295, 314, 314, 295, 295, 314, 314, 295, 295, 314, 314, 295, 295, 314, 314, 295, 295, 314, 314, 295, 295, 314, 314, 295, 295, 314, 314, 295, 295, 314, 314, 295, 295, 314, 314, 295, 295, 314, 314, 295, 295, 314, 314, 295, 295, 314, 314, 295, 295, 314, 314, 295, 295, 314, 314, 295, 295, 314, 314, 295, 295, 314, 314, 295, 295, 314, 314, 295, 295, 314, 314, 295, 295, 314, 314, 295, 295, 314, 314, 295, 295, 314, 314, 295, 295, 314, 314, 295, 295, 314, 314, 295, 295, 314, 314, 295, 295, 314, 314, 295, 295, 314, 314, 295, 295, 314, 314, 295, 295, 314, 314, 295, 295, 314, 314, 295, 295, 314, 314, 295, 295, 314, 314, 295, 295, 314, 314, 295, 295, 314, 314, 295, 295, 314, 314, 295, 295, 314, 314, 295, 295, 314, 314, 295, 295, 314, 314, 295, 295, 314, 314, 295, 295, 314, 314, 295, 295, 314, 314, 295, 295, 314, 314, 295, 295, 314, 314, 295, 295, 314, 314, 295, 295, 314, 314, 295, 295, 314, 314, 295, 295, 314, 314, 295, 295, 314, 314, 295, 295, 314, 314, 295, 295, 314, 314, 295, 295, 314, 314, 295, 295, 314, 314, 295, 295, 314, 314, 295, 295, 314, 314, 295, 295, 314, 314, 295, 295, 314, 314, 295, 295, 314, 314, 295, 295, 314, 314, 295, 295, 314, 314, 295, 295, 314, 314, 295, 295, 314, 314, 295, 295, 314, 314, 295, 295, 314, 314, 295, 295, 314, 314, 295, 295, 314, 314, 295, 295, 314, 314, 295, 295, 314, 314, 295, 295, 314, 314, 295, 295, 314, 314, 295, 295, 314, 314, 295, 295, 314, 314, 295, 295, 314, 314, 295, 295, 314, 314, 295, 295, 314, 314, 295, 295, 314, 314, 295, 295, 314, 314, 295, 295, 314, 314, 295, 295, 314, 314, 295, 295, 314, 314, 295, 295, 314, 314, 295, 295, 314, 314, 295, 295, 314, 314, 295, 295, 314, 314, 295, 295, 314, 314, 295, 295, 314, 314, 295, 295, 314, 314, 295, 295, 314, 314, 295, 295, 314, 314, 295, 295, 314, 314, 295, 295, 314, 314, 295, 295, 314, 314, 295, 295, 314, 314, 295, 295, 314, 314, 295, 295, 314, 314, 295, 295, 314, 314, 295, 295, 314, 314, 295, 295, 314, 314, 295, 295, 314, 314, 295, 295, 314, 314, 295, 295, 314, 314, 295, 295, 314, 314, 295, 295, 314, 314, 295, 295, 314, 314, 295, 295, 314, 314, 295, 295, 314, 314, 295, 295, 314, 314, 295, 295, 314, 314, 295, 295, 314, 314, 295, 295, 314, 314, 295, 295, 314, 314, 295, 295, 314, 314, 295, 295, 314, 314, 295, 295, 314, 314, 295, 295, 314, 314, 295, 295, 314, 314, 295, 295, 314, 314, 295, 295, 314, 314, 295, 295, 314, 314, 295, 295, 314, 88, 88, 88, 88, 88, 88, 88, 88, 314, 295, 295, 314, 314, 295, 295, 314, 314, 295, 295, 314, 314, 295, 295, 314, 314, 295, 295, 314, 314, 295, 295, 314, 314, 295, 295, 314, 314, 295, 295, 314, 314, 295, 295, 314, 314, 295, 295, 314, 314, 295, 295, 314, 314, 295, 295, 314, 314, 295, 295, 314, 314, 295, 295, 314, 314, 295, 295, 314, 314, 295, 295, 314, 314, 295, 295, 314, 314, 295, 295, 314, 314, 295, 295, 314, 314, 295, 295, 314, 314, 295, 295, 314, 314, 295, 295, 314, 314, 295, 295, 314, 314, 295, 295, 314, 314, 295, 295, 314, 314, 295, 295, 314, 314, 295, 295, 314, 314, 295, 295, 314, 314, 295, 295, 314, 314, 295, 295, 314, 314, 295, 295, 314, 314, 295, 295, 314, 314, 295, 295, 314, 314, 295, 295, 314, 314, 295, 295, 314, 314, 295, 295, 314, 314, 295, 295, 314, 314, 295, 295, 314, 314, 295, 295, 314, 314, 295, 295, 314, 314, 295, 295, 314, 314, 295, 295, 314, 314, 295, 295, 314, 314, 295, 295, 314, 314, 295, 295, 314, 314, 295, 295, 314, 314, 295, 295, 314, 314, 295, 295, 314, 314, 295, 295, 314, 314, 295, 295, 314, 314, 295, 295, 314, 314, 295, 295, 314, 314, 295, 295, 314, 314, 295, 295, 314, 314, 295, 295, 314, 314, 295, 295, 314, 314, 295, 295, 314, 314, 295, 295, 314, 314, 295, 295, 314, 314, 295, 295, 314, 314, 295, 295, 314, 314, 295, 295, 314, 314, 295, 295, 314, 314, 295, 295, 314, 314, 295, 295, 314, 314, 295, 295, 314, 314, 295, 295, 314, 314, 295, 295, 314, 314, 295, 295, 314, 314, 295, 295, 314, 314, 295, 295, 314, 314, 295, 295, 314, 314, 295, 295, 314, 314, 295, 295, 314, 314, 295, 295, 314, 314, 295, 295, 314, 314, 295, 295, 314, 314, 295, 295, 314, 314, 295, 295, 314, 314, 295, 295, 314, 314, 295, 295, 314, 314, 295, 295, 314, 314, 295, 295, 314, 314, 295, 295, 314, 314, 295, 295, 314, 314, 295, 295, 314, 314, 295, 295, 314, 314, 295, 295, 314, 314, 295, 295, 314, 314, 295, 295, 314, 88, 88, 88, 88, 314, 295, 295, 314, 314, 295, 295, 314, 314, 295, 295, 314, 314, 295, 295, 314, 314, 295, 295, 314, 314, 295, 295, 314, 314, 295, 295, 314, 314, 295, 295, 314, 314, 295, 295, 314, 314, 295, 295, 314, 314, 295, 295, 314, 314, 295, 295, 314, 314, 295, 295, 314, 314, 295, 295, 314, 314, 295, 295, 314, 314, 295, 295, 314, 314, 295, 295, 314, 314, 295, 295, 314, 314, 295, 295, 314, 314, 295, 295, 314, 314, 295, 295, 314, 314, 295, 295, 314, 314, 295, 295, 314, 314, 295, 295, 314, 314, 295, 295, 314, 314, 295, 295, 314, 314, 295, 295, 314, 314, 295, 295, 314, 314, 295, 295, 314, 314, 295, 295, 314, 314, 295, 295, 314, 314, 295, 295, 314, 314, 295, 295, 314, 314, 295, 295, 314, 314, 295, 295, 314, 314, 295, 295, 314, 314, 295, 295, 314, 314, 295, 295, 314, 314, 295, 295, 314, 314, 295, 295, 314, 314, 295, 295, 314, 314, 295, 295, 314, 314, 295, 295, 314, 314, 295, 295, 314, 314, 295, 295, 314, 314, 295, 295, 314, 314, 295, 295, 314, 314, 295, 295, 314, 314, 295, 295, 314, 314, 295, 295, 314, 314, 295, 295, 314, 314, 295, 295, 314, 314, 295, 295, 314, 314, 295, 295, 314, 314, 295, 295, 314, 314, 295, 295, 314, 314, 295, 295, 314, 314, 295, 295, 314, 314, 295, 295, 314, 314, 295, 295, 314, 314, 295, 295, 314, 317, 298, 298, 317, 317, 298, 298, 317, 317, 298, 298, 317, 317, 298, 298, 317, 317, 298, 298, 317, 317, 298, 298, 317, 317, 298, 298, 317, 88, 88, 88, 88, 88, 88, 88, 88, 88, 88, 88, 88, 88, 88, 88, 88, 88, 88, 88, 88, 88, 88, 88, 88, 88, 88, 88, 88, 88, 88, 88, 88, 88, 88, 88, 88, 88, 88, 88, 88, 
gpgpu_n_tot_thrd_icount = 662830560
gpgpu_n_tot_w_icount = 20713455
gpgpu_n_icache_hits = 10483973
gpgpu_n_icache_misses = 571432
gpgpu_n_l1dcache_read_hits = 5687010
gpgpu_n_l1dcache_read_misses = 21312990
gpgpu_n_l1dcache_write_accesses = 26154000
gpgpu_n_l1dcache_wirte_misses = 26154000
gpgpu_n_tcache_hits = 0
gpgpu_n_tcache_misses = 0
gpgpu_n_ccache_hits = 143608
gpgpu_n_ccache_misses = 392
gpgpu_n_stall_shd_mem = 404737500
gpgpu_n_mem_read_local = 0
gpgpu_n_mem_write_local = 0
gpgpu_n_mem_read_global = 19623216
gpgpu_n_mem_write_global = 26154000
gpgpu_n_mem_texture = 0
gpgpu_n_mem_const = 14
gpgpu_n_load_insn  = 86400000
gpgpu_n_store_insn = 82080000
gpgpu_n_shmem_insn = 0
gpgpu_n_tex_insn = 0
gpgpu_n_const_mem_insn = 0
gpgpu_n_param_mem_insn = 8640000
gpgpu_n_shmem_bkconflict = 0
gpgpu_n_cache_bkconflict = 0
gpgpu_n_intrawarp_mshr_merge = 0
gpgpu_n_cmem_portconflict = 0
gpgpu_stall_shd_mem[c_mem][bk_conf] = 0
gpgpu_stall_shd_mem[c_mem][mshr_rc] = 0
gpgpu_stall_shd_mem[c_mem][icnt_rc] = 0
gpgpu_stall_shd_mem[t_mem][mshr_rc] = 0
gpgpu_stall_shd_mem[t_mem][icnt_rc] = 0
gpgpu_stall_shd_mem[s_mem][bk_conf] = 0
gpgpu_stall_shd_mem[gl_mem][bk_conf] = 0
gpgpu_stall_shd_mem[gl_mem][coal_stall] = 404737500
gpgpu_stall_shd_mem[g_mem_ld][mshr_rc] = 0
gpgpu_stall_shd_mem[g_mem_ld][icnt_rc] = 0
gpgpu_stall_shd_mem[g_mem_ld][wb_icnt_rc] = 0
gpgpu_stall_shd_mem[g_mem_ld][wb_rsrv_fail] = 0
gpgpu_stall_shd_mem[g_mem_st][mshr_rc] = 0
gpgpu_stall_shd_mem[g_mem_st][icnt_rc] = 0
gpgpu_stall_shd_mem[g_mem_st][wb_icnt_rc] = 0
gpgpu_stall_shd_mem[g_mem_st][wb_rsrv_fail] = 0
gpgpu_stall_shd_mem[l_mem_ld][mshr_rc] = 0
gpgpu_stall_shd_mem[l_mem_ld][icnt_rc] = 0
gpgpu_stall_shd_mem[l_mem_ld][wb_icnt_rc] = 0
gpgpu_stall_shd_mem[l_mem_ld][wb_rsrv_fail] = 0
gpgpu_stall_shd_mem[l_mem_st][mshr_rc] = 0
gpgpu_stall_shd_mem[l_mem_st][icnt_rc] = 0
gpgpu_stall_shd_mem[l_mem_ld][wb_icnt_rc] = 0
gpgpu_stall_shd_mem[l_mem_ld][wb_rsrv_fail] = 0
gpu_reg_bank_conflict_stalls = 0
Warp Occupancy Distribution:
Stall:606223306	W0_Idle:195827962	W0_Scoreboard:3267239	W1:617798	W2:5244	W3:33116	W4:6080	W5:28680	W6:6080	W7:28730	W8:7429	W9:27093	W10:7904	W11:30734	W12:134937	W13:140409	W14:130712	W15:146040	W16:123725	W17:122235	W18:124088	W19:121986	W20:107613	W21:101321	W22:94712	W23:4039576	W24:1340550	W25:90830	W26:72320	W27:74220	W28:72320	W29:62924	W30:63072	W31:3089383	W32:9661594
maxmrqlatency = 964 
maxdqlatency = 0 
maxmflatency = 1532 
averagemflatency = 308 
max_icnt2mem_latency = 1084 
max_icnt2sh_latency = 29530198 
mrq_lat_table:9073555 	789494 	1082810 	3324041 	6152695 	8337899 	5844642 	2410033 	337792 	6061 	0 	0 	0 	0 	0 	0 	0 	0 	0 	0 	0 	0 	0 	0 	0 	0 	0 	0 	0 	0 	0 	0 	
dq_lat_table:0 	0 	0 	0 	0 	0 	0 	0 	0 	0 	0 	0 	0 	0 	0 	0 	0 	0 	0 	0 	0 	0 	0 	0 	0 	0 	0 	0 	0 	0 	0 	0 	
mf_lat_table:0 	0 	0 	0 	0 	0 	468011 	16483537 	26006042 	2817549 	2091 	0 	0 	0 	0 	0 	0 	0 	0 	0 	0 	0 	0 	0 	0 	0 	0 	0 	0 	0 	0 	0 	
icnt2mem_lat_table:7807 	894039 	888125 	884030 	1563420 	13326271 	10913560 	13884951 	3529632 	8840 	1 	0 	0 	0 	0 	0 	0 	0 	0 	0 	0 	0 	0 	0 	
icnt2sh_lat_table:0 	3706566 	6179636 	9334660 	401926 	442 	0 	0 	0 	0 	0 	0 	0 	0 	0 	324 	48684 	50249 	211910 	429544 	858436 	1885298 	3766715 	7551776 	
mf_lat_pw_table:11351064 	0 	0 	0 	0 	0 	2 	7956 	50552 	549 	0 	0 	0 	0 	0 	0 	0 	0 	0 	0 	0 	0 	0 	0 	0 	0 	0 	0 	0 	0 	0 	0 	
maximum concurrent accesses to same row:
dram[0]:        48        48        50        72        64        64        60        60        51        64        56        64        64        71        68        54 
dram[1]:        48        48        64        52        64        64        64        56        48        64        56        52        48        50        48        52 
dram[2]:        50        49        48        52        56        50        64        66        48        50        64        56        54        47        49        51 
dram[3]:        51        55        48        56        64        56        64        59        56        55        56        64        56        50        51        56 
dram[4]:        48        48        60        60        64        50        64        60        56        68        56        64        64        74        54        52 
maximum service time to same row:
dram[0]:      7131      8605      7342      8405     12296      6583      8925      7960      9863      9776      8858     11863     11485     14780     12041      9065 
dram[1]:      6800      8598      7563      8367     12272      9910      8426      8023      8862      9275      8842     10825     11387     12035      9380      8805 
dram[2]:      7715      7660      6609     10882      8553      7407      8452      6968      9719      6281      7546     10195      7525      9497      8385      9027 
dram[3]:      6998      8237      6830     10497     12340      7060      8333      8976      8472      6826      8862     12770      9085      9555      8378      8984 
dram[4]:      8325      8290      7557     10444     12286      7194      8430      7973      9870     11359      9453     11712     11197     15025     10221      9009 
average row accesses per activate:
dram[0]:  5.695655  6.247322  6.234097  6.326040  6.271267  6.315428  6.300955  6.370918  6.222664  6.256321  6.270217  6.331789  6.249047  6.279749  6.276320  6.379081 
dram[1]:  5.620129  5.956958  5.964029  6.063196  6.002860  6.011787  6.033473  6.072654  5.975755  5.977782  5.978773  6.043198  5.972620  6.007481  5.999370  6.089012 
dram[2]:  4.731857  4.949433  4.981429  5.020667  5.003156  4.978239  5.047120  5.051306  4.987512  4.935176  4.971907  4.989657  5.000378  4.994924  5.022636  5.066639 
dram[3]:  4.735077  5.124549  5.152718  5.213390  5.172792  5.178308  5.208659  5.252680  5.137151  5.123873  5.142816  5.166248  5.180127  5.186253  5.217266  5.267126 
dram[4]:  5.609755  6.296988  6.265546  6.400030  6.280062  6.335645  6.337647  6.451337  6.246000  6.308746  6.277485  6.405056  6.275925  6.355989  6.330035  6.465910 
average row locality = 37359022/6608582 = 5.653108
number of total memory accesses made:
dram[0]:         0         0         0         0         0         0         0         0         0         0         0         0         0         0         0         0 
dram[1]:         0         0         0         0         0         0         0         0         0         0         0         0         0         0         0         0 
dram[2]:         0         0         0         0         0         0         0         0         0         0         0         0         0         0         0         0 
dram[3]:         0         0         0         0         0         0         0         0         0         0         0         0         0         0         0         0 
dram[4]:         0         0         0         0         0         0         0         0         0         0         0         0         0         0         0         0 
total accesses: 0
min_bank_accesses = 0!
min_chip_accesses = 0!
number of total read accesses:
dram[0]:    221193    211104    212511    211480    213814    211756    212852    210932    212373    210635    212652    211956    215242    212553    213550    212151 
dram[1]:    195511    188888    189462    189429    190955    189540    190086    188696    189552    188515    189681    189401    192227    190253    190683    189818 
dram[2]:    230189    222470    223250    222639    224402    222802    223944    222180    223336    222021    223704    222967    226132    223585    224634    223357 
dram[3]:    255814    243947    245374    244219    246401    243957    245601    243703    245220    243317    245812    244559    248199    244863    246282    244979 
dram[4]:    236113    223859    225343    224289    227004    224179    225887    223548    225456    223145    225740    224674    228482    225329    226605    225001 
total reads: 17577964
[...]
dram[3]:  4.754686  5.147308  5.170965  5.253311  5.202935  5.201004  5.215349  5.286841  5.157100  5.134347  5.147045  5.199563  5.207659  5.201885  5.227576  5.278207 
dram[4]:  5.632412  6.330706  6.290250  6.451339  6.320312  6.361655  6.330395  6.498390  6.279134  6.314748  6.258993  6.418832  6.315396  6.373816  6.350657  6.486067 
average row locality = 74797823/13181418 = 5.674490
number of total memory accesses made:
dram[0]:         0         0         0         0         0         0         0         0         0         0         0         0         0         0         0         0 
dram[1]:         0         0         0         0         0         0         0         0         0         0         0         0         0         0         0         0 
dram[2]:         0         0         0         0         0         0         0         0         0         0         0         0         0         0         0         0 
dram[3]:         0         0         0         0         0         0         0         0         0         0         0         0         0         0         0         0 
dram[4]:         0         0         0         0         0         0         0         0         0         0         0         0         0         0         0         0 
total accesses: 0
min_bank_accesses = 0!
min_chip_accesses = 0!
number of total read accesses:
dram[0]:    442595    425207    425722    422972    427258    423727    426965    423099    426309    424188    426726    424713    429203    426727    427382    425184 
dram[1]:    391567    380713    379996    378759    381664    379053    381165    378316    380724    379745    380954    379775    383501    382046    381588    380435 
dram[2]:    461227    447736    448015    445881    449131    445759    449107    445876    448919    446798    449337    447453    451547    449036    449818    447976 
dram[3]:    512306    490777    491625    488618    492868    488505    492654    488496    492346    489478    493174    490468    495332    491838    493140    490893 
dram[4]:    472673    450727    451445    448493    453731    448590    452999    448115    452776    449383    452822    450287    455647    452245    453569    450808 
total reads: 35238422
bank skew: 512306/378316 = 1.35
chip skew: 7882518/6100001 = 1.29
number of total write accesses:
dram[0]:    486784    486256    484843    483085    486537    484935    485879    482480    485390    485218    485110    483917    486194    486653    485221    484564 
dram[1]:    440438    440470    438507    437453    440178    439183    439430    436414    439204    439541    438925    437871    439912    440810    438746    438662 
dram[2]:    499966    499079    498128    496498    499053    498166    498933    495792    498930    498441    498309    497126    499075    499629    498007    497929 
dram[3]:    541865    540970    539905    537984    541257    539437    540830    536982    540946    539779    540224    538853    541289    541246    539714    539281 
dram[4]:    511867    510635    509290    507460    511545    509189    510810    506440    510688    509341    509905    508526    511177    511119    510086    508890 
total reads: 39559401
bank skew: 541865/436414 = 1.24
chip skew: 8640562/7025744 = 1.23
average mf latency per bank:
dram[0]:        352       357       358       359       358       358       358       361       357       357       360       361       358       358       359       360
dram[1]:        345       348       350       351       350       350       350       352       349       348       352       352       350       350       351       352
dram[2]:        360       364       366       367       365       365       366       368       364       364       368       368       366       366       367       367
dram[3]:        409       417       418       419       418       418       418       421       417       417       421       421       418       419       419       421
dram[4]:        376       383       384       386       384       384       384       387       382       383       387       387       384       385       385       387
maximum mf latency per bank:
dram[0]:       1106      1142      1165      1196      1228      1160      1214      1195      1251      1490      1167      1176      1039      1125      1060      1055
dram[1]:       1125      1267      1142      1097      1090      1138      1079      1139      1224      1354      1264      1267      1248      1272      1293      1135
dram[2]:       1286      1222      1296      1255      1289      1344      1311      1369      1424      1313      1345      1222      1502      1369      1283      1257
dram[3]:       1342      1331      1276      1333      1341      1293      1384      1381      1270      1305      1347      1443      1365      1387      1297      1329
dram[4]:       1341      1366      1292      1293      1414      1222      1256      1532      1220      1276      1387      1301      1318      1264      1304      1292

Number of Memory Banks Accessed per Memory Operation per Warp (from 0):
0	0	0	0	0	0	0	0	0	0	0	0	0	0	0	0	0	0	0	0	0	0	0	0	0	0	0	0	0	0	0	0	0	0	0	0	0	0	0	0	0	0	0	0	0	0	0	0	0	0	0	0	0	0	0	0	0	0	0	0	0	0	0	0	0	0	0	0	0	0	0	0	0	0	0	0	0	0	0	0	
Average # of Memory Banks Accessed per Memory Operation per Warp=-nan

position of mrq chosen
0	0	0	0	0	0	0	0	0	0	0	0	0	0	0	0	

average position of mrq chosen = -nan
gpgpu_l2_write_miss = 0
gpgpu_l2_write_access = 0
gpgpu_l2_read_miss = 0
gpgpu_l2_read_access = 0
Cache L2_bank_000:
MSHR contents

DRAM[0]: 16 bks, busW=4 BL=8 CL=12, tRRD=2 tCCD=6, tRCD=12 tRAS=28 tRP=12 tRC=40
n_cmd=106064628 n_nop=74668299 n_act=2325207 n_pre=2325191 n_req=14591043 n_rd=13655954 n_write=13089977 bw_util=0.5043
n_activity=100008186 dram_eff=0.5349
bk0: 885190a 83820080i bk1: 850414a 83387655i bk2: 851444a 83468014i bk3: 845944a 82790969i bk4: 854516a 83151989i bk5: 847454a 82462760i bk6: 853930a 82451648i bk7: 846198a 81532289i bk8: 852618a 81586699i bk9: 848376a 80487309i bk10: 853452a 80159772i bk11: 849426a 78863380i bk12: 858406a 78341510i bk13: 853454a 75831717i bk14: 854764a 72056410i bk15: 850368a 63253758i 
dram_util_bins: 0 0 0 0 0 0 0 0 0 0
dram_eff_bins: 0 0 0 0 0 0 0 0 0 0
mrqq: max=16 avg=10.2674
Cache L2_bank_001:
MSHR contents

DRAM[1]: 16 bks, busW=4 BL=8 CL=12, tRRD=2 tCCD=6, tRCD=12 tRAS=28 tRP=12 tRC=40
n_cmd=106064628 n_nop=77200635 n_act=2186297 n_pre=2186281 n_req=13125745 n_rd=12200002 n_write=12291413 bw_util=0.4618
n_activity=94679819 dram_eff=0.5174
bk0: 783134a 86606395i bk1: 761426a 86153251i bk2: 759992a 86334438i bk3: 757518a 85677066i bk4: 763328a 86054753i bk5: 758106a 85393441i bk6: 762330a 85476017i bk7: 756632a 84519993i bk8: 761448a 84627448i bk9: 759490a 83531846i bk10: 761908a 83344009i bk11: 759550a 81964122i bk12: 767002a 81366807i bk13: 764092a 78851562i bk14: 763176a 75394494i bk15: 760870a 66627167i 
dram_util_bins: 0 0 0 0 0 0 0 0 0 0
dram_eff_bins: 0 0 0 0 0 0 0 0 0 0
mrqq: max=16 avg=8.92168
Cache L2_bank_002:
MSHR contents
MSHR: tag=0x8b0b2580, atomic=0 1 entries : 0x2b3845c478e0 :  mf: uid=875244911, sid12:w19, part=2, addr=0x8b0b25e0, load , size=32, unknown  status = IN_PARTITION_DRAM (58924794), 

DRAM[2]: 16 bks, busW=4 BL=8 CL=12, tRRD=2 tCCD=6, tRCD=12 tRAS=28 tRP=12 tRC=40
n_cmd=106064628 n_nop=72691656 n_act=3031967 n_pre=3031951 n_req=15156677 n_rd=14367230 n_write=12941824 bw_util=0.515
n_activity=100522987 dram_eff=0.5433
bk0: 922452a 81550191i bk1: 895472a 81114919i bk2: 896030a 81312132i bk3: 891762a 80530267i bk4: 898262a 81042813i bk5: 891518a 80320677i bk6: 898214a 80399214i bk7: 891752a 79279034i bk8: 897838a 79521259i bk9: 893596a 78308913i bk10: 898674a 78089465i bk11: 894906a 76533878i bk12: 903094a 76016328i bk13: 898072a 73098937i bk14: 899636a 68560906i bk15: 895952a 57210948i 
dram_util_bins: 0 0 0 0 0 0 0 0 0 0
dram_eff_bins: 0 0 0 0 0 0 0 0 0 0
mrqq: max=16 avg=10.9888
Cache L2_bank_003:
MSHR contents

DRAM[3]: 16 bks, busW=4 BL=8 CL=12, tRRD=2 tCCD=6, tRCD=12 tRAS=28 tRP=12 tRC=40
n_cmd=106064628 n_nop=69767732 n_act=3195566 n_pre=3195550 n_req=16523080 n_rd=15765036 n_write=14140744 bw_util=0.5639
n_activity=104320469 dram_eff=0.5733
bk0: 1024612a 77888808i bk1: 981554a 77726500i bk2: 983250a 77820619i bk3: 977236a 77021930i bk4: 985736a 77532963i bk5: 977010a 76731124i bk6: 985308a 76763467i bk7: 976992a 75640651i bk8: 984692a 75875817i bk9: 978956a 74551531i bk10: 986348a 74193167i bk11: 980936a 72647457i bk12: 990664a 72151743i bk13: 983676a 69093655i bk14: 986280a 64215344i bk15: 981786a 53131990i 
dram_util_bins: 0 0 0 0 0 0 0 0 0 0
dram_eff_bins: 0 0 0 0 0 0 0 0 0 0
mrqq: max=16 avg=12.6637
Cache L2_bank_004:
MSHR contents

DRAM[4]: 16 bks, busW=4 BL=8 CL=12, tRRD=2 tCCD=6, tRCD=12 tRAS=28 tRP=12 tRC=40
n_cmd=106064628 n_nop=72504853 n_act=2442382 n_pre=2442366 n_req=15401278 n_rd=14488620 n_write=14186407 bw_util=0.5407
n_activity=102605636 dram_eff=0.5589
bk0: 945346a 81219524i bk1: 901454a 81088420i bk2: 902890a 81141013i bk3: 896986a 80430740i bk4: 907462a 80736810i bk5: 897180a 80024845i bk6: 905998a 79943833i bk7: 896230a 78965750i bk8: 905552a 78985716i bk9: 898766a 77823247i bk10: 905644a 77463371i bk11: 900574a 76174798i bk12: 911294a 75690481i bk13: 904490a 73033172i bk14: 907138a 69072919i bk15: 901616a 60464867i 
dram_util_bins: 0 0 0 0 0 0 0 0 0 0
dram_eff_bins: 0 0 0 0 0 0 0 0 0 0
mrqq: max=16 avg=11.5221
Cache L2_bank_000:	Size = 131072 B (64 Set x 16-way x 128 byte line)
		Access = 18201078, Miss = 6827977 (0.375), PendingHit = 25672 (0.00141)
Cache L2_bank_001:	Size = 131072 B (64 Set x 16-way x 128 byte line)
		Access = 16477759, Miss = 6100001 (0.37), PendingHit = 22404 (0.00136)
Cache L2_bank_002:	Size = 131072 B (64 Set x 16-way x 128 byte line)
		Access = 17823589, Miss = 7183616 (0.403), PendingHit = 26456 (0.00148)
Cache L2_bank_003:	Size = 131072 B (64 Set x 16-way x 128 byte line)
		Access = 19995812, Miss = 7882518 (0.394), PendingHit = 31641 (0.00158)
Cache L2_bank_004:	Size = 131072 B (64 Set x 16-way x 128 byte line)
		Access = 19529048, Miss = 7244310 (0.371), PendingHit = 28915 (0.00148)
L2 Cache Total Miss Rate = 0.383

icnt_total_pkts_mem_to_simt=250904402
icnt_total_pkts_simt_to_mem=233651286

LD_mem_lat_dist  0 0 0 0 0 0 0 0 0 0 0 0 0 0 0 0 0 0 0 0 0 0 0 0 0 0 0
ST_mem_lat_dist  0 0 0 0 0 0 0 0 0 0 0 0 0 0 0 0 0 0 0 0 0 0 0 0 0 0 0
Traffic 0 Stat
%=================================
% Average latency = 128.614
% Accepted packets = 0 at node 0 (avg = 0.0864834)
lat(3) = 128.614;
thru(3,:) = [ 0 0 0 0 0 0 0 0 0 0 0 0 0 0 0.398 0.369816 0.369035 0.423678 0.428588 0 0 0 0 ];
% latency change    = 0.919971
% throughput change = 0.0630695
Traffic 1 Stat
%=================================
% Average latency = 10.3967
% Accepted packets = 0 at node 14 (avg = 0.0931974)
lat(4) = 10.3967;
thru(4,:) = [ 0.153441 0.152641 0.154471 0.158046 0.148448 0.154962 0.152005 0.153885 0.151855 0.153401 0.15032 0.153152 0.155544 0.151369 0 0 0 0 0 0 0 0 0 ];
% latency change    = 11.3707
% throughput change = 0.0720414
----------------------------Interconnect-DETAILS---------------------------------=======Traffic[0]class0 ======
Traffic[0]class0Overall average latency = 128.889 (2 samples)
Traffic[0]class0Overall average accepted rate = 0.0862016 (2 samples)
Traffic[0]class0Overall min accepted rate = 0 (2 samples)
traffic_manager/latency_stat_0_freq = [ 0 856061 208170 156998 146864 146548 123243 104167 98117 91288 85537 79069 74229 70222 67369 65898 609765 779106 569641 580876 530576 536442 491640 573446 583343 582466 643211 648679 648438 639580 635171 624516 605476 613272 593252 581162 567208 554284 537099 515874 501680 481965 461688 447772 425752 410500 391941 377935 359051 346274 328259 315325 300235 288406 274272 262355 249089 239175 227032 217590 206703 198517 188263 181356 172110 165361 157362 151449 145521 141085 133751 130923 125256 122147 116789 114421 109787 108273 104678 103221 99770 99194 95836 95649 92715 92860 90264 90148 87434 88435 86607 87493 85912 87204 84845 86531 85249 86103 85312 86592 86002 87289 86819 88053 87098 88860 88090 89301 88664 89939 89905 91238 90450 92914 91431 92912 92543 93765 92477 93567 92583 93563 92491 93570 92509 93947 92080 92481 91395 91619 90995 91109 89706 90470 88713 88475 86729 87275 85361 85374 84169 84285 81907 81424 79414 79545 77842 77616 75389 75749 73567 73227 71206 70868 68920 68862 66676 66393 64273 63548 61725 61972 59942 59345 58006 57517 56048 55977 54073 54043 52382 52473 50616 51042 49127 49788 48161 48175 46440 46966 45484 46088 44251 44954 43794 43729 42450 43172 41802 42416 41054 41295 40381 40994 39779 40224 39148 39391 38654 39054 38419 38914 38027 38591 37576 38534 37380 38293 37522 38074 37370 38258 37205 38352 36806 38027 37369 38285 37251 37814 37296 38292 37083 38568 37277 38525 37833 38919 37971 38933 37767 39127 37781 39339 38666 39691 38594 39724 39099 40199 39091 40487 39532 40722 39755 41206 39708 41200 39489 41102 40474 41717 40569 42034 40800 42344 41381 42367 40943 42462 41510 42590 41580 42738 41662 42886 41879 43121 42039 43206 41772 43185 42176 43328 42027 43621 42265 43757 42882 43984 42506 43934 42393 43916 42265 43549 42254 43879 42022 43939 42453 43672 42052 43184 41808 43253 42188 43029 41783 43187 41731 42600 41637 42950 41536 42764 41455 42783 41133 42359 41185 42247 40923 41901 40230 41429 40517 41240 40191 41177 40200 41248 39786 40932 39559 40200 38971 40348 38962 40005 38858 40037 38391 39569 38214 39008 37755 39160 37479 38869 37137 38661 37451 38293 36908 37933 36664 37907 36240 37491 36118 36907 35722 36757 35612 36546 35243 36359 35263 36015 34652 35872 34376 35603 34458 35118 34139 34869 33567 34576 33816 34173 33153 33872 32806 33759 32319 33220 32210 33527 31919 32135 31467 32062 31320 31757 30822 31246 30228 31240 30382 30710 30105 30692 29499 29892 29054 29932 28641 29491 28205 29301 28101 28558 27825 28475 27615 28049 27268 27591 26611 27340 26848 27180 26113 26811 25889 26570 25795 26146 25695 25677 24840 25624 24270 25072 24280 24758 23951 24524 23858 24129 23384 23779 22921 23439 22813 22855 22477 22675 21952 22647 21863 22023 21405 21884 21179 21497 20753 21461 20687 20936 20370 20725 19960 20132 19650 19788 19374 19547 19007 19432 18688 18991 18425 18747 18136 18344 17820 18406 17466 17941 17197 17721 17116 17381 16659 17086 16604 16630 16182 16063 15804 15922 15471 15571 15330 15477 14972 14934 15031 14923 14504 14840 14088 14572 13989 14316 13875 13984 13556 13547 13456 13469 12957 13333 12737 12741 12639 12687 12413 12465 11997 11947 11931 11905 11496 11704 11385 11686 11067 11316 10912 11111 10791 10560 10449 10446 10139 10293 10071 10030 9832 9849 9494 9720 9184 9701 9162 9388 8968 8991 8686 8838 8596 8651 8465 8533 8208 8283 7971 8070 7817 7833 7590 7464 7421 7484 7277 7302 7228 7129 6922 6930 6880 6678 6510 6678 6496 6543 6313 6449 6223 6254 5954 6063 5804 5838 5523 5626 5546 5577 5438 5423 5366 5229 5113 5028 4980 4986 4776 4787 4689 4794 4425 4568 4334 4577 4198 4375 4269 4274 4118 4131 3928 4013 3803 3769 3783 3750 3578 3632 3573 3579 3355 3352 3343 3387 3250 3221 3056 3104 3008 3001 2884 2925 2810 2835 2701 2812 2725 2621 2590 2511 2578 2441 2512 2557 2454 2368 2283 2321 2191 2266 2170 2087 2092 2183 2073 2043 1867 2019 1895 1953 1814 1918 1793 1839 1727 1682 1706 1652 1619 1686 1581 1528 1464 1592 1436 1517 1427 1457 1403 1437 1329 1321 1372 1317 1278 1327 1276 1207 1227 1177 1160 1193 1099 1094 1101 1085 1043 1026 1067 941 960 1007 940 981 901 957 867 867 918 836 764 808 825 725 746 792 786 750 697 686 728 686 668 644 662 651 674 654 611 611 569 554 539 549 614 565 526 500 514 530 455 510 469 476 441 407 439 445 472 410 418 442 382 442 390 384 383 376 374 381 362 377 343 340 356 362 336 310 331 306 316 334 292 286 296 284 266 276 279 240 266 270 244 259 281 254 253 229 248 205 189 217 204 205 161 208 173 196 178 194 172 185 200 195 198 165 139 154 202 149 198 165 152 164 156 148 129 149 120 134 132 127 125 105 131 116 133 134 109 133 109 138 94 113 108 121 94 141 120 99 107 98 108 92 90 91 83 90 67 88 88 90 84 79 95 78 74 98 67 77 78 71 60 84 64 69 67 72 58 68 51 52 68 62 50 58 53 47 56 55 71 48 48 39 45 58 47 47 46 54 39 50 40 49 30 38 24 33 35 34 45 45 24 43 37 29 29 30 37 28 31 29 20 35 27 23 42 39 24 35 29 12 26 25 26 29 28 22 26 23 28 26 17 17 24 28 25 22 22 14 13 24 18 20 18 12 14 16 15 16 17 18 10 15 17 21 19 13 11 14 19 14 12 18 19 18 8 10 12 13 17 12 21 15 24 16 13 15 17 19 25 10 10 12 12 10 6 19 9 13 8 11 8 12 9 17 12 10 7 9 11 7 14 6 14 605 ];
Traffic[0]class1Average hops = 1 (92027286 samples)
traffic_manager/hop_stats_freq = [ 0 92027286 0 0 0 0 0 0 0 0 0 0 0 0 0 0 0 0 0 0 ];
=======Traffic[1]class0 ======
Traffic[1]class0Overall average latency = 10.3448 (2 samples)
Traffic[1]class0Overall average accepted rate = 0.0925676 (2 samples)
Traffic[1]class0Overall min accepted rate = 0 (2 samples)
traffic_manager/latency_stat_0_freq = [ 0 10592240 1072739 577529 1036318 3937867 1098723 1121126 1665551 2904963 1226528 1052882 1093377 1137447 1072186 811090 5702634 1591526 1143367 1113129 1301929 1312088 563671 432693 417800 448775 452306 201457 153959 146962 150468 157997 70762 52201 49728 49924 55873 24521 17741 17471 17352 20708 8748 6226 6262 6533 9307 2954 2077 2310 2697 3768 1151 807 791 1031 1624 376 250 269 391 645 84 72 80 137 229 19 21 22 21 74 1 2 5 6 12 0 0 0 0 0 0 0 0 0 0 0 0 0 0 0 0 0 0 0 0 0 0 0 0 0 0 0 0 0 0 0 0 0 0 0 0 0 0 0 0 0 0 0 0 0 0 0 0 0 0 0 0 0 0 0 0 0 0 0 0 0 0 0 0 0 0 0 0 0 0 0 0 0 0 0 0 0 0 0 0 0 0 0 0 0 0 0 0 0 0 0 0 0 0 0 0 0 0 0 0 0 0 0 0 0 0 0 0 0 0 0 0 0 0 0 0 0 0 0 0 0 0 0 0 0 0 0 0 0 0 0 0 0 0 0 0 0 0 0 0 0 0 0 0 0 0 0 0 0 0 0 0 0 0 0 0 0 0 0 0 0 0 0 0 0 0 0 0 0 0 0 0 0 0 0 0 0 0 0 0 0 0 0 0 0 0 0 0 0 0 0 0 0 0 0 0 0 0 0 0 0 0 0 0 0 0 0 0 0 0 0 0 0 0 0 0 0 0 0 0 0 0 0 0 0 0 0 0 0 0 0 0 0 0 0 0 0 0 0 0 0 0 0 0 0 0 0 0 0 0 0 0 0 0 0 0 0 0 0 0 0 0 0 0 0 0 0 0 0 0 0 0 0 0 0 0 0 0 0 0 0 0 0 0 0 0 0 0 0 0 0 0 0 0 0 0 0 0 0 0 0 0 0 0 0 0 0 0 0 0 0 0 0 0 0 0 0 0 0 0 0 0 0 0 0 0 0 0 0 0 0 0 0 0 0 0 0 0 0 0 0 0 0 0 0 0 0 0 0 0 0 0 0 0 0 0 0 0 0 0 0 0 0 0 0 0 0 0 0 0 0 0 0 0 0 0 0 0 0 0 0 0 0 0 0 0 0 0 0 0 0 0 0 0 0 0 0 0 0 0 0 0 0 0 0 0 0 0 0 0 0 0 0 0 0 0 0 0 0 0 0 0 0 0 0 0 0 0 0 0 0 0 0 0 0 0 0 0 0 0 0 0 0 0 0 0 0 0 0 0 0 0 0 0 0 0 0 0 0 0 0 0 0 0 0 0 0 0 0 0 0 0 0 0 0 0 0 0 0 0 0 0 0 0 0 0 0 0 0 0 0 0 0 0 0 0 0 0 0 0 0 0 0 0 0 0 0 0 0 0 0 0 0 0 0 0 0 0 0 0 0 0 0 0 0 0 0 0 0 0 0 0 0 0 0 0 0 0 0 0 0 0 0 0 0 0 0 0 0 0 0 0 0 0 0 0 0 0 0 0 0 0 0 0 0 0 0 0 0 0 0 0 0 0 0 0 0 0 0 0 0 0 0 0 0 0 0 0 0 0 0 0 0 0 0 0 0 0 0 0 0 0 0 0 0 0 0 0 0 0 0 0 0 0 0 0 0 0 0 0 0 0 0 0 0 0 0 0 0 0 0 0 0 0 0 0 0 0 0 0 0 0 0 0 0 0 0 0 0 0 0 0 0 0 0 0 0 0 0 0 0 0 0 0 0 0 0 0 0 0 0 0 0 0 0 0 0 0 0 0 0 0 0 0 0 0 0 0 0 0 0 0 0 0 0 0 0 0 0 0 0 0 0 0 0 0 0 0 0 0 0 0 0 0 0 0 0 0 0 0 0 0 0 0 0 0 0 0 0 0 0 0 0 0 0 0 0 0 0 0 0 0 0 0 0 0 0 0 0 0 0 0 0 0 0 0 0 0 0 0 0 0 0 0 0 0 0 0 0 0 0 0 0 0 0 0 0 0 0 0 0 0 0 0 0 0 0 0 0 0 0 0 0 0 0 0 0 0 0 0 0 0 0 0 0 0 0 0 0 0 0 0 0 0 0 0 0 0 0 0 0 0 0 0 0 0 0 0 0 0 0 0 0 0 0 0 0 0 0 0 0 0 0 0 0 0 0 0 0 0 0 0 0 0 0 0 0 0 0 0 0 0 0 0 0 0 0 0 0 0 0 0 0 0 0 0 0 0 0 0 0 0 0 0 0 0 0 0 0 0 0 0 0 0 0 0 0 0 0 0 0 0 0 0 0 0 0 0 0 0 0 0 0 0 0 0 0 0 0 0 0 0 0 ];
Traffic[1]class1Average hops = 1 (92027286 samples)
traffic_manager/hop_stats_freq = [ 0 92027286 0 0 0 0 0 0 0 0 0 0 0 0 0 0 0 0 0 0 ];
----------------------------END-of-Interconnect-DETAILS-------------------------

gpgpu_simulation_time = 0 days, 6 hrs, 56 min, 13 sec (24973 sec)
gpgpu_simulation_rate = 45316 (inst/sec)
gpgpu_simulation_rate = 2359 (cycle/sec)
timestep: 2
LBM_allocateGrid: allocated 185.2 MByte
GPGPU-Sim: synchronize waiting for inactive GPU simulation
GPGPU-Sim API: Stream Manager State
GPGPU-Sim: detected inactive GPU simulation thread
LBM_showGridStatistics:
	nObstacleCells:  343321 nAccelCells:   26912 nFluidCells: 1789767
	minRho:   0.9961 maxRho:   1.0039 mass: 2.160000e+06
	minU: 0.000000e+00 maxU: 4.025417e-03

