

        *** GPGPU-Sim Simulator Version 3.2.1  [build 15629] ***


               1=functional simulation only, 0=detailed performance simulator)
GPGPU-Sim: Configuration options:

-network_mode                           1 # Interconnection network mode
-inter_config_file   config_fermi_islip.icnt # Interconnection network config file
-gpgpu_ptx_use_cuobjdump                    1 # Use cuobjdump to extract ptx and sass from binaries
-gpgpu_experimental_lib_support                    0 # Try to extract code from cuda libraries [Broken because of unknown cudaGetExportTable]
-gpgpu_ptx_convert_to_ptxplus                    0 # Convert SASS (native ISA) to ptxplus and run ptxplus
-gpgpu_ptx_force_max_capability                   20 # Force maximum compute capability
-gpgpu_ptx_inst_debug_to_file                    0 # Dump executed instructions' debug information to file
-gpgpu_ptx_inst_debug_file       inst_debug.txt # Executed instructions' debug output file
-gpgpu_ptx_inst_debug_thread_uid                    1 # Thread UID for executed instructions' debug output
-gpgpu_simd_model                       1 # 1 = post-dominator
-gpgpu_shader_core_pipeline              1536:32 # shader core pipeline config, i.e., {<nthread>:<warpsize>}
-gpgpu_tex_cache:l1  4:128:24,L:R:m:N,F:128:4,128:2 # per-shader L1 texture cache  (READ-ONLY) config  {<nsets>:<bsize>:<assoc>,<rep>:<wr>:<alloc>:<wr_alloc>,<mshr>:<N>:<merge>,<mq>:<rf>}
-gpgpu_const_cache:l1 64:64:2,L:R:f:N,A:2:32,4 # per-shader L1 constant memory cache  (READ-ONLY) config  {<nsets>:<bsize>:<assoc>,<rep>:<wr>:<alloc>:<wr_alloc>,<mshr>:<N>:<merge>,<mq>} 
-gpgpu_cache:il1     4:128:4,L:R:f:N,A:2:32,4 # shader L1 instruction cache config  {<nsets>:<bsize>:<assoc>,<rep>:<wr>:<alloc>:<wr_alloc>,<mshr>:<N>:<merge>,<mq>} 
-gpgpu_cache:dl1     32:128:4,L:L:m:N,A:32:8,8 # per-shader L1 data cache config  {<nsets>:<bsize>:<assoc>,<rep>:<wr>:<alloc>:<wr_alloc>,<mshr>:<N>:<merge>,<mq> | none}
-gpgpu_perfect_mem                      0 # enable perfect memory mode (no cache miss)
-n_regfile_gating_group                    4 # group of lanes that should be read/written together)
-gpgpu_clock_gated_reg_file                    0 # enable clock gated reg file for power calculations
-gpgpu_clock_gated_lanes                    0 # enable clock gated lanes for power calculations
-gpgpu_shader_registers                32768 # Number of registers per shader core. Limits number of concurrent CTAs. (default 8192)
-gpgpu_shader_cta                       8 # Maximum number of concurrent CTAs in shader (default 8)
-gpgpu_n_clusters                      14 # number of processing clusters
-gpgpu_n_cores_per_cluster                    1 # number of simd cores per cluster
-gpgpu_n_cluster_ejection_buffer_size                    8 # number of packets in ejection buffer
-gpgpu_n_ldst_response_buffer_size                    2 # number of response packets in ld/st unit ejection buffer
-gpgpu_shmem_size                   16384 # Size of shared memory per shader core (default 16kB)
-gpgpu_shmem_num_banks                   32 # Number of banks in the shared memory in each shader core (default 16)
-gpgpu_shmem_limited_broadcast                    0 # Limit shared memory to do one broadcast per cycle (default on)
-gpgpu_shmem_warp_parts                    1 # Number of portions a warp is divided into for shared memory bank conflict check 
-gpgpu_warpdistro_shader                   -1 # Specify which shader core to collect the warp size distribution from
-gpgpu_warp_issue_shader                    0 # Specify which shader core to collect the warp issue distribution from
-gpgpu_local_mem_map                    1 # Mapping from local memory space address to simulated GPU physical address space (default = enabled)
-gpgpu_num_reg_banks                   16 # Number of register banks (default = 8)
-gpgpu_reg_bank_use_warp_id                    0 # Use warp ID in mapping registers to banks (default = off)
-gpgpu_operand_collector_num_units_sp                    6 # number of collector units (default = 4)
-gpgpu_operand_collector_num_units_sfu                    8 # number of collector units (default = 4)
-gpgpu_operand_collector_num_units_mem                    2 # number of collector units (default = 2)
-gpgpu_operand_collector_num_units_gen                    0 # number of collector units (default = 0)
-gpgpu_operand_collector_num_in_ports_sp                    2 # number of collector unit in ports (default = 1)
-gpgpu_operand_collector_num_in_ports_sfu                    1 # number of collector unit in ports (default = 1)
-gpgpu_operand_collector_num_in_ports_mem                    1 # number of collector unit in ports (default = 1)
-gpgpu_operand_collector_num_in_ports_gen                    0 # number of collector unit in ports (default = 0)
-gpgpu_operand_collector_num_out_ports_sp                    2 # number of collector unit in ports (default = 1)
-gpgpu_operand_collector_num_out_ports_sfu                    1 # number of collector unit in ports (default = 1)
-gpgpu_operand_collector_num_out_ports_mem                    1 # number of collector unit in ports (default = 1)
-gpgpu_operand_collector_num_out_ports_gen                    0 # number of collector unit in ports (default = 0)
-gpgpu_coalesce_arch                   13 # Coalescing arch (default = 13, anything else is off for now)
-gpgpu_num_sched_per_core                    2 # Number of warp schedulers per core
-gpgpu_max_insn_issue_per_warp                    1 # Max number of instructions that can be issued per warp in one cycle by scheduler
-gpgpu_simt_core_sim_order                    1 # Select the simulation order of cores in a cluster (0=Fix, 1=Round-Robin)
-gpgpu_pipeline_widths        2,1,1,2,1,1,2 # Pipeline widths ID_OC_SP,ID_OC_SFU,ID_OC_MEM,OC_EX_SP,OC_EX_SFU,OC_EX_MEM,EX_WB
-gpgpu_num_sp_units                     2 # Number of SP units (default=1)
-gpgpu_num_sfu_units                    1 # Number of SF units (default=1)
-gpgpu_num_mem_units                    1 # Number if ldst units (default=1) WARNING: not hooked up to anything
-gpgpu_scheduler                      lrr # Scheduler configuration: < lrr | gto | two_level_active > If two_level_active:<num_active_warps>:<inner_prioritization>:<outer_prioritization>For complete list of prioritization values see shader.h enum scheduler_prioritization_typeDefault: gto
-gpgpu_dram_scheduler                    1 # 0 = fifo, 1 = FR-FCFS (defaul)
-gpgpu_dram_partition_queues              8:8:8:8 # i2$:$2d:d2$:$2i
-l2_ideal                               0 # Use a ideal L2 cache that always hit
-gpgpu_cache:dl2     64:128:16,L:B:m:W,A:32:4,4 # unified banked L2 data cache config  {<nsets>:<bsize>:<assoc>,<rep>:<wr>:<alloc>:<wr_alloc>,<mshr>:<N>:<merge>,<mq>}
-gpgpu_cache:dl2_texture_only                    0 # L2 cache used for texture only
-gpgpu_n_mem                            5 # number of memory modules (e.g. memory controllers) in gpu
-gpgpu_n_mem_per_ctrlr                    2 # number of memory chips per memory controller
-gpgpu_memlatency_stat                   14 # track and display latency statistics 0x2 enables MC, 0x4 enables queue logs
-gpgpu_frfcfs_dram_sched_queue_size                   16 # 0 = unlimited (default); # entries per chip
-gpgpu_dram_return_queue_size                    0 # 0 = unlimited (default); # entries per chip
-gpgpu_dram_buswidth                    4 # default = 4 bytes (8 bytes per cycle at DDR)
-gpgpu_dram_burst_length                    8 # Burst length of each DRAM request (default = 4 data bus cycle)
-dram_data_command_freq_ratio                    4 # Frequency ratio between DRAM data bus and command bus (default = 2 times, i.e. DDR)
-gpgpu_dram_timing_opt nbk=16:CCD=2:RRD=6:RCD=12:RAS=28:RP=12:RC=40: CL=12:WL=4:CDLR=5:WR=12:nbkgrp=4:CCDL=3:RTPL=2 # DRAM timing parameters = {nbk:tCCD:tRRD:tRCD:tRAS:tRP:tRC:CL:WL:tCDLR:tWR:nbkgrp:tCCDL:tRTPL}
-rop_latency                           60 # ROP queue latency (default 85)
-dram_latency                          50 # DRAM latency (default 30)
-gpgpu_mem_addr_mapping dramid@8;00000000.00000000.00000000.00000000.0000RRRR.RRRRRRRR.BBBBCCCC.CCSSSSSS # mapping memory address to dram model {dramid@<start bit>;<memory address map>}
-gpgpu_mem_addr_test                    0 # run sweep test to check address mapping for aliased address
-gpgpu_mem_address_mask                    1 # 0 = old addressing mask, 1 = new addressing mask, 2 = new add. mask + flipped bank sel and chip sel bits
-gpuwattch_xml_file         gpuwattch.xml # GPUWattch XML file
-power_simulation_enabled                    1 # Turn on power simulator (1=On, 0=Off)
-power_per_cycle_dump                    0 # Dump detailed power output each cycle
-power_trace_enabled                    1 # produce a file for the power trace (1=On, 0=Off)
-power_trace_zlevel                     6 # Compression level of the power trace output log (0=no comp, 9=highest)
-steady_power_levels_enabled                    0 # produce a file for the steady power levels (1=On, 0=Off)
-steady_state_definition                  8:4 # allowed deviation:number of samples
-gpgpu_max_cycle                        0 # terminates gpu simulation early (0 = no limit)
-gpgpu_max_insn                         0 # terminates gpu simulation early (0 = no limit)
-gpgpu_max_cta                          0 # terminates gpu simulation early (0 = no limit)
-gpgpu_runtime_stat                   500 # display runtime statistics such as dram utilization {<freq>:<flag>}
-gpgpu_flush_l1_cache                    0 # Flush L1 cache at the end of each kernel call
-gpgpu_flush_l2_cache                    0 # Flush L2 cache at the end of each kernel call
-gpgpu_deadlock_detect                    1 # Stop the simulation at deadlock (1=on (default), 0=off)
-gpgpu_ptx_instruction_classification                    0 # if enabled will classify ptx instruction types per kernel (Max 255 kernels now)
-gpgpu_ptx_sim_mode                     0 # Select between Performance (default) or Functional simulation (1)
-gpgpu_clock_domains 300.0:600.0:300.0:900.0 # Clock Domain Frequencies in MhZ {<Core Clock>:<ICNT Clock>:<L2 Clock>:<DRAM Clock>}
-gpgpu_max_concurrent_kernel                    8 # maximum kernels that can run concurrently on GPU
-gpgpu_cflog_interval                    0 # Interval between each snapshot in control flow logger
-visualizer_enabled                     0 # Turn on visualizer output (1=On, 0=Off)
-visualizer_outputfile                 NULL # Specifies the output log file for visualizer
-visualizer_zlevel                      6 # Compression level of the visualizer output log (0=no comp, 9=highest)
-trace_enabled                          0 # Turn on traces
-trace_components                    none # comma seperated list of traces to enable. Complete list found in trace_streams.tup. Default none
-trace_sampling_core                    0 # The core which is printed using CORE_DPRINTF. Default 0
-enable_ptx_file_line_stats                    1 # Turn on PTX source line statistic profiling. (1 = On)
-ptx_line_stats_filename gpgpu_inst_stats.txt # Output file for PTX source line statistics.
-save_embedded_ptx                      0 # saves ptx files embedded in binary as <n>.ptx
-keep                                   0 # keep intermediate files created by GPGPU-Sim when interfacing with external programs
-gpgpu_ptx_save_converted_ptxplus                    0 # Saved converted ptxplus to a file
-ptx_opcode_latency_int         4,13,4,5,145 # Opcode latencies for integers <ADD,MAX,MUL,MAD,DIV>Default 1,1,19,25,145
-ptx_opcode_latency_fp          4,13,4,5,39 # Opcode latencies for single precision floating points <ADD,MAX,MUL,MAD,DIV>Default 1,1,1,1,30
-ptx_opcode_latency_dp         8,19,8,8,330 # Opcode latencies for double precision floating points <ADD,MAX,MUL,MAD,DIV>Default 8,8,8,8,335
-ptx_opcode_initiation_int            1,2,2,1,8 # Opcode initiation intervals for integers <ADD,MAX,MUL,MAD,DIV>Default 1,1,4,4,32
-ptx_opcode_initiation_fp            1,2,1,1,4 # Opcode initiation intervals for single precision floating points <ADD,MAX,MUL,MAD,DIV>Default 37dfb8e9e40b0e560664e37aa5fe3ed5  /tmp/tmp.uNS0fZbZun/atax__SIZE1_1
1,1,1,1,5
-ptx_opcode_initiation_dp         8,16,8,8,130 # Opcode initiation intervals for double precision floating points <ADD,MAX,MUL,MAD,DIV>Default 8,8,8,8,130
DRAM Timing Options:
nbk                                    16 # number of banks
CCD                                     2 # column to column delay
RRD                                     6 # minimal delay between activation of rows in different banks
RCD                                    12 # row to column delay
RAS                                    28 # time needed to activate row
RP                                     12 # time needed to precharge (deactivate) row
RC                                     40 # row cycle time
CDLR                                    5 # switching from write to read (changes tWTR)
WR                                     12 # last data-in to row precharge
CL                                     12 # CAS latency
WL                                      4 # Write latency
nbkgrp                                  4 # number of bank groups
CCDL                                    3 # column to column delay between accesses to different bank groups
RTPL                                    2 # read to precharge delay between accesses to different bank groups
addr_dec_mask[CHIP]  = 0000000000000000 	high:64 low:0
addr_dec_mask[BK]    = 000000000000f000 	high:16 low:12
addr_dec_mask[ROW]   = 000000000fff0000 	high:28 low:16
addr_dec_mask[COL]   = 0000000000000fff 	high:12 low:0
addr_dec_mask[BURST] = 000000000000003f 	high:6 low:0
*** Initializing Memory Statistics ***
self exe links to: /tmp/tmp.uNS0fZbZun/atax__SIZE1_1
Running md5sum using "md5sum /tmp/tmp.uNS0fZbZun/atax__SIZE1_1 "
Running cuobjdump using "$CUDA_INSTALL_PATH/bin/cuobjdump -ptx -elf -sass /tmp/tmp.uNS0fZbZun/atax__SIZE1_1 > _cuobjdump_complete_output_3z8SWu"
Parsing file _cuobjdump_complete_output_3z8SWu
######### cuobjdump parser ########
## Adding new section PTX
Adding ptx filename: _cuobjdump_1.ptx
Adding arch: sm_13
Adding identifier: benchmarks/atax/atax.cu
## Adding new section ELF
Adding arch: sm_13
Adding identifier: benchmarks/atax/atax.cu
Done parsing!!!
Adding _cuobjdump_1.ptx with cubin handle 1
Running: cat _ptx_61Ar1F | sed 's/.version 1.5/.version 1.4/' | sed 's/, texmode_independent//' | sed 's/\(\.extern \.const\[1\] .b8 \w\+\)\[\]/\1\[1\]/' | sed 's/const\[.\]/const\[0\]/g' > _ptx2_L7L05Q

kernel '_Z12atax_kernel1PfS_S_' transfer to GPU hardware scheduler
kernel_name = _Z12atax_kernel1PfS_S_ 
kernel_launch_uid = 1 
gpu_sim_cycle = 35212172
gpu_sim_insn = 8410112
gpu_ipc =       0.2388
gpu_tot_sim_cycle = 35212172
gpu_tot_sim_insn = 8410112
gpu_tot_ipc =       0.2388
gpu_tot_issued_cta = 0
gpu_stall_dramfull = 0
gpu_stall_icnt2sh    = 99
gpu_total_sim_rate=3909
Cache L1D_000:	Size = 16384 B (32 Set x 4-way x 128 byte line)
		Access = 0, Miss = 0 (-nan), PendingHit = 0 (-nan)
Cache L1D_001:	Size = 16384 B (32 Set x 4-way x 128 byte line)
		Access = 1081376, Miss = 1052975 (0.974), PendingHit = 20209 (0.0187)
Cache L1D_002:	Size = 16384 B (32 Set x 4-way x 128 byte line)
		Access = 0, Miss = 0 (-nan), PendingHit = 0 (-nan)
Cache L1D_003:	Size = 16384 B (32 Set x 4-way x 128 byte line)
		Access = 0, Miss = 0 (-nan), PendingHit = 0 (-nan)
Cache L1D_004:	Size = 16384 B (32 Set x 4-way x 128 byte line)
		Access = 0, Miss = 0 (-nan), PendingHit = 0 (-nan)
Cache L1D_005:	Size = 16384 B (32 Set x 4-way x 128 byte line)
		Access = 0, Miss = 0 (-nan), PendingHit = 0 (-nan)
Cache L1D_006:	Size = 16384 B (32 Set x 4-way x 128 byte line)
		Access = 0, Miss = 0 (-nan), PendingHit = 0 (-nan)
Cache L1D_007:	Size = 16384 B (32 Set x 4-way x 128 byte line)
		Access = 0, Miss = 0 (-nan), PendingHit = 0 (-nan)
Cache L1D_008:	Size = 16384 B (32 Set x 4-way x 128 byte line)
		Access = 0, Miss = 0 (-nan), PendingHit = 0 (-nan)
Cache L1D_009:	Size = 16384 B (32 Set x 4-way x 128 byte line)
		Access = 0, Miss = 0 (-nan), PendingHit = 0 (-nan)
Cache L1D_010:	Size = 16384 B (32 Set x 4-way x 128 byte line)
		Access = 0, Miss = 0 (-nan), PendingHit = 0 (-nan)
Cache L1D_011:	Size = 16384 B (32 Set x 4-way x 128 byte line)
		Access = 0, Miss = 0 (-nan), PendingHit = 0 (-nan)
Cache L1D_012:	Size = 16384 B (32 Set x 4-way x 128 byte line)
		Access = 0, Miss = 0 (-nan), PendingHit = 0 (-nan)
Cache L1D_013:	Size = 16384 B (32 Set x 4-way x 128 byte line)
		Access = 0, Miss = 0 (-nan), PendingHit = 0 (-nan)
total_dl1_misses=1052975
total_dl1_accesses=1081376
total_dl1_miss_rate= 0.973736
Shader 0 dynamic_warp_id issue ditsribution:
dynamic_warp_id:

distro:

gpgpu_n_tot_thrd_icount = 8412160
gpgpu_n_tot_w_icount = 262880
gpgpu_n_icache_hits = 164160
gpgpu_n_icache_misses = 64
gpgpu_n_l1dcache_read_hits = 8192
gpgpu_n_l1dcache_read_misses = 1073184
gpgpu_n_l1dcache_write_accesses = 32
gpgpu_n_l1dcache_wirte_misses = 32
gpgpu_n_tcache_hits = 0
gpgpu_n_tcache_misses = 0
gpgpu_n_ccache_hits = 64
gpgpu_n_ccache_misses = 32
gpgpu_n_stall_shd_mem = 35048519
gpgpu_n_mem_read_local = 0
gpgpu_n_mem_write_local = 0
gpgpu_n_mem_read_global = 1052975
gpgpu_n_mem_write_global = 32
gpgpu_n_mem_texture = 0
gpgpu_n_mem_const = 1
gpgpu_n_load_insn  = 4196352
gpgpu_n_store_insn = 2048
gpgpu_n_shmem_insn = 0
gpgpu_n_tex_insn = 0
gpgpu_n_const_mem_insn = 0
gpgpu_n_param_mem_insn = 6144
gpgpu_n_shmem_bkconflict = 0
gpgpu_n_cache_bkconflict = 0
gpgpu_n_intrawarp_mshr_merge = 0
gpgpu_n_cmem_portconflict = 0
gpgpu_stall_shd_mem[c_mem][bk_conf] = 0
gpgpu_stall_shd_mem[c_mem][mshr_rc] = 0
gpgpu_stall_shd_mem[c_mem][icnt_rc] = 0
gpgpu_stall_shd_mem[t_mem][mshr_rc] = 0
gpgpu_stall_shd_mem[t_mem][icnt_rc] = 0
gpgpu_stall_shd_mem[s_mem][bk_conf] = 0
gpgpu_stall_shd_mem[gl_mem][bk_conf] = 0
gpgpu_stall_shd_mem[gl_mem][coal_stall] = 35048519
gpgpu_stall_shd_mem[g_mem_ld][mshr_rc] = 0
gpgpu_stall_shd_mem[g_mem_ld][icnt_rc] = 0
gpgpu_stall_shd_mem[g_mem_ld][wb_icnt_rc] = 0
gpgpu_stall_shd_mem[g_mem_ld][wb_rsrv_fail] = 0
gpgpu_stall_shd_mem[g_mem_st][mshr_rc] = 0
gpgpu_stall_shd_mem[g_mem_st][icnt_rc] = 0
gpgpu_stall_shd_mem[g_mem_st][wb_icnt_rc] = 0
gpgpu_stall_shd_mem[g_mem_st][wb_rsrv_fail] = 0
gpgpu_stall_shd_mem[l_mem_ld][mshr_rc] = 0
gpgpu_stall_shd_mem[l_mem_ld][icnt_rc] = 0
gpgpu_stall_shd_mem[l_mem_ld][wb_icnt_rc] = 0
gpgpu_stall_shd_mem[l_mem_ld][wb_rsrv_fail] = 0
gpgpu_stall_shd_mem[l_mem_st][mshr_rc] = 0
gpgpu_stall_shd_mem[l_mem_st][icnt_rc] = 0
gpgpu_stall_shd_mem[l_mem_ld][wb_icnt_rc] = 0
gpgpu_stall_shd_mem[l_mem_ld][wb_rsrv_fail] = 0
gpu_reg_bank_conflict_stalls = 0
Warp Occupancy Distribution:
Stall:52489379	W0_Idle:17671988	W0_Scoreboard:123	W1:0	W2:0	W3:0	W4:0	W5:0	W6:0	W7:0	W8:0	W9:0	W10:0	W11:0	W12:0	W13:0	W14:0	W15:0	W16:0	W17:0	W18:0	W19:0	W20:0	W21:0	W22:0	W23:0	W24:0	W25:0	W26:0	W27:0	W28:0	W29:0	W30:0	W31:0	W32:262880
maxmrqlatency = 9 
maxdqlatency = 0 
maxmflatency = 172 
averagemflatency = 132 
max_icnt2mem_latency = 11 
max_icnt2sh_latency = 35212171 
mrq_lat_table:1052574 	118 	60 	3 	0 	0 	0 	0 	0 	0 	0 	0 	0 	0 	0 	0 	0 	0 	0 	0 	0 	0 	0 	0 	0 	0 	0 	0 	0 	0 	0 	0 	
dq_lat_table:0 	0 	0 	0 	0 	0 	0 	0 	0 	0 	0 	0 	0 	0 	0 	0 	0 	0 	0 	0 	0 	0 	0 	0 	0 	0 	0 	0 	0 	0 	0 	0 	
mf_lat_table:0 	0 	0 	0 	0 	0 	298 	1052710 	0 	0 	0 	0 	0 	0 	0 	0 	0 	0 	0 	0 	0 	0 	0 	0 	0 	0 	0 	0 	0 	0 	0 	0 	
icnt2mem_lat_table:1 	1052973 	27 	9 	0 	0 	0 	0 	0 	0 	0 	0 	0 	0 	0 	0 	0 	0 	0 	0 	0 	0 	0 	0 	
icnt2sh_lat_table:0 	1050748 	2170 	35 	15 	8 	0 	0 	0 	0 	0 	0 	0 	0 	0 	0 	0 	0 	0 	0 	0 	0 	0 	0 	
mf_lat_pw_table:16 	16 	0 	0 	0 	0 	12 	70412 	0 	0 	0 	0 	0 	0 	0 	0 	0 	0 	0 	0 	0 	0 	0 	0 	0 	0 	0 	0 	0 	0 	0 	0 	
maximum concurrent accesses to same row:
dram[0]:         3         1         1         1         1         1         6         1         1         1         1         1         1         1         1         1 
dram[1]:         1         1         1         1         1         1         6         1         1         1         1         1         1         1         1         1 
dram[2]:         1         1         1         1         1         1         7         1         1         1         1         1         1         1         1         1 
dram[3]:         1         1         1         1         1         1         6         1         1         1         1         1         1         1         1         1 
dram[4]:         1         1         1         1         1         1         8         1         1         1         1         1         1         1         1         1 
maximum service time to same row:
dram[0]:      5963      5969      5971      6470      5967      5969      8219      9071      9031      9049      5852      5852      8216      8216      8216      8216 
dram[1]:      5969      5971      5959      6470      5969      5971      8219      9031      9049      9060      5852      5852      8216      8216      8216      8216 
dram[2]:      5971      5959      5963      6470      5971      5959      8219      9049      9060      9071      5852      5852      8216      8216      8216      8216 
dram[3]:      5959      5963      5969      6470      5959      5967      8219      9060      9071      8219      5852      5852      8216      8216      8216      8216 
dram[4]:      5963      5969      5971      6470      5967      5969      8219      9071      9031      8219      5852      5852      8216      8216      8216      8216 
average row accesses per activate:
dram[0]:  1.000225  1.000000  1.000000  1.000000  1.000000  1.000000  1.001037  1.000000  1.000000  1.000000  1.000000  1.000000  1.000000  1.000000  1.000000  1.000000 
dram[1]:  1.000000  1.000000  1.000000  1.000000  1.000000  1.000000  1.001037  1.000000  1.000000  1.000000  1.000000  1.000000  1.000000  1.000000  1.000000  1.000000 
dram[2]:  1.000000  1.000000  1.000000  1.000000  1.000000  1.000000  1.001242  1.000000  1.000000  1.000000  1.000000  1.000000  1.000000  1.000000  1.000000  1.000000 
dram[3]:  1.000000  1.000000  1.000000  1.000000  1.000000  1.000000  1.001116  1.000000  1.000000  1.000000  1.000000  1.000000  1.000000  1.000000  1.000000  1.000000 
dram[4]:  1.000000  1.000000  1.000000  1.000000  1.000000  1.000000  1.001488  1.000000  1.000000  1.000000  1.000000  1.000000  1.000000  1.000000  1.000000  1.000000 
average row locality = 1052755/1052672 = 1.000079
number of total memory accesses made:
dram[0]:         0         0         0         0         0         0         0         0         0         0         0         0         0         0         0         0 
dram[1]:         0         0         0         0         0         0         0         0         0         0         0         0         0         0         0         0 
dram[2]:         0         0         0         0         0         0         0         0         0         0         0         0         0         0         0         0 
dram[3]:         0         0         0         0         0         0         0         0         0         0         0         0         0         0         0         0 
dram[4]:         0         0         0         0         0         0         0         0         0         0         0         0         0         0         0         0 
total accesses: 0
min_bank_accesses = 0!
min_chip_accesses = 0!
number of total read accesses:
dram[0]:     13315     13312     13312     13312     13312     13312     13513     12288     12288     12672     13312     13312     13312     13312     13312     13312 
dram[1]:     13312     13312     13312     13312     13312     13312     13513     12288     12288     12672     13312     13312     13312     13312     13312     13312 
dram[2]:     13312     13312     13312     13312     13312     13312     13704     12288     12288     12672     13312     13312     13312     13312     13312     13312 
dram[3]:     13312     13312     13312     13312     13312     13312     13449     12288     12288     12736     13312     13312     13312     13312     13312     13312 
dram[4]:     13312     13312     13312     13312     13312     13312     13453     12288     12288     12736     13312     13312     13312     13312     13312     13312 
total reads: 1052723
bank skew: 13704/12288 = 1.12
chip skew: 210696/210505 = 1.00
number of total write accesses:
dram[0]:         0         0         0         0         0         0         6         0         0         0         0         0         0         0         0         0 
dram[1]:         0         0         0         0         0         0         6         0         0         0         0         0         0         0         0         0 
dram[2]:         0         0         0         0         0         0         6         0         0         0         0         0         0         0         0         0 
dram[3]:         0         0         0         0         0         0         6         0         0         0         0         0         0         0         0         0 
dram[4]:         0         0         0         0         0         0         8         0         0         0         0         0         0         0         0         0 
total reads: 32
min_bank_accesses = 0!
chip skew: 8/6 = 1.33
average mf latency per bank:
dram[0]:        132       132       132       133       132       133       133       132       132       133       132       132       133       132       132       133
dram[1]:        132       132       132       133       132       133       133       132       132       133       132       132       133       132       132       133
dram[2]:        132       132       132       132       132       133       133       132       132       133       132       132       133       132       132       133
dram[3]:        132       132       132       132       132       133       133       132       132       133       132       132       133       132       132       133
dram[4]:        132       132       132       132       132       133       133       132       132       133       132       132       133       132       132       133
maximum mf latency per bank:
dram[0]:        134       133       133       134       133       137       169       133       133       135       133       133       141       134       133       134
dram[1]:        133       133       133       134       133       137       158       133       133       135       133       133       141       134       133       134
dram[2]:        133       133       133       134       133       137       159       133       133       135       133       133       141       133       133       134
dram[3]:        133       133       133       134       133       137       161       133       133       136       133       133       141       133       133       134
dram[4]:        133       133       133       134       133       140       172       133       133       135       133       133       141       133       133       134

Number of Memory Banks Accessed per Memory Operation per Warp (from 0):
0	0	0	0	0	0	0	0	0	0	0	0	0	0	0	0	0	0	0	0	0	0	0	0	0	0	0	0	0	0	0	0	0	0	0	0	0	0	0	0	0	0	0	0	0	0	0	0	0	0	0	0	0	0	0	0	0	0	0	0	0	0	0	0	0	0	0	0	0	0	0	0	0	0	0	0	0	0	0	0	
Average # of Memory Banks Accessed per Memory Operation per Warp=-nan

position of mrq chosen
0	0	0	0	0	0	0	0	0	0	0	0	0	0	0	0	

average position of mrq chosen = -nan
gpgpu_l2_write_miss = 0
gpgpu_l2_write_access = 0
gpgpu_l2_read_miss = 0
gpgpu_l2_read_access = 0
Cache L2_bank_000:
MSHR contents
MSHR: tag=0x80402680, atomic=0 1 entries : 0x1803630 :  mf: uid=35278468, sid01:w13, part=0, addr=0x80402680, load , size=128, unknown  status = IN_PARTITION_L2_FILL_QUEUE (35212171), 

DRAM[0]: 16 bks, busW=4 BL=8 CL=12, tRRD=2 tCCD=6, tRCD=12 tRAS=28 tRP=12 tRC=40
n_cmd=105636514 n_nop=104794506 n_act=210498 n_pre=210482 n_req=210514 n_rd=421016 n_write=12 bw_util=0.007971
n_activity=10913865 dram_eff=0.07715
bk0: 26630a 105612770i bk1: 26624a 105630361i bk2: 26624a 105635779i bk3: 26624a 105635624i bk4: 26624a 105635515i bk5: 26624a 105636514i bk6: 27026a 105636509i bk7: 24576a 105636234i bk8: 24576a 105636514i bk9: 25344a 105636390i bk10: 26624a 105635429i bk11: 26624a 105636498i bk12: 26624a 105630109i bk13: 26624a 105459347i bk14: 26624a 105636001i bk15: 26624a 99749668i 
dram_util_bins: 0 0 0 0 0 0 0 0 0 0
dram_eff_bins: 0 0 0 0 0 0 0 0 0 0
mrqq: max=1 avg=4.53442e-06
Cache L2_bank_001:
MSHR contents
MSHR: tag=0x80402780, atomic=0 1 entries : 0x18038d0 :  mf: uid=35278469, sid01:w15, part=1, addr=0x80402780, load , size=128, unknown  status = IN_PARTITION_DRAM (35212169), 

DRAM[1]: 16 bks, busW=4 BL=8 CL=12, tRRD=2 tCCD=6, tRCD=12 tRAS=28 tRP=12 tRC=40
n_cmd=105636514 n_nop=104794514 n_act=210497 n_pre=210481 n_req=210511 n_rd=421010 n_write=12 bw_util=0.007971
n_activity=10913766 dram_eff=0.07715
bk0: 26624a 105612771i bk1: 26624a 105630361i bk2: 26624a 105635770i bk3: 26624a 105635625i bk4: 26624a 105635518i bk5: 26624a 105636513i bk6: 27026a 105636500i bk7: 24576a 105636231i bk8: 24576a 105636514i bk9: 25344a 105636380i bk10: 26624a 105635432i bk11: 26624a 105636498i bk12: 26624a 105630135i bk13: 26624a 105459350i bk14: 26624a 105636005i bk15: 26624a 99749698i 
dram_util_bins: 0 0 0 0 0 0 0 0 0 0
dram_eff_bins: 0 0 0 0 0 0 0 0 0 0
mrqq: max=1 avg=4.49655e-06
Cache L2_bank_002:
MSHR contents

DRAM[2]: 16 bks, busW=4 BL=8 CL=12, tRRD=2 tCCD=6, tRCD=12 tRAS=28 tRP=12 tRC=40
n_cmd=105636514 n_nop=104793756 n_act=210685 n_pre=210669 n_req=210702 n_rd=421392 n_write=12 bw_util=0.007978
n_activity=10922894 dram_eff=0.07716
bk0: 26624a 105612910i bk1: 26624a 105630326i bk2: 26624a 105635744i bk3: 26624a 105635592i bk4: 26624a 105635408i bk5: 26624a 105636513i bk6: 27408a 105636514i bk7: 24576a 105636141i bk8: 24576a 105636514i bk9: 25344a 105636340i bk10: 26624a 105635388i bk11: 26624a 105636488i bk12: 26624a 105630043i bk13: 26624a 105459340i bk14: 26624a 105635896i bk15: 26624a 99744528i 
dram_util_bins: 0 0 0 0 0 0 0 0 0 0
dram_eff_bins: 0 0 0 0 0 0 0 0 0 0
mrqq: max=1 avg=4.97934e-06
Cache L2_bank_003:
MSHR contents
MSHR: tag=0x80402e80, atomic=0 1 entries : 0x1803b70 :  mf: uid=35278470, sid01:w29, part=3, addr=0x80402e80, load , size=128, unknown  status = IN_PARTITION_DRAM (35212170), 

DRAM[3]: 16 bks, busW=4 BL=8 CL=12, tRRD=2 tCCD=6, tRCD=12 tRAS=28 tRP=12 tRC=40
n_cmd=105636514 n_nop=104794516 n_act=210496 n_pre=210480 n_req=210511 n_rd=421010 n_write=12 bw_util=0.007971
n_activity=10913669 dram_eff=0.07715
bk0: 26624a 105612732i bk1: 26624a 105630395i bk2: 26624a 105635783i bk3: 26624a 105635643i bk4: 26624a 105635483i bk5: 26624a 105636513i bk6: 26898a 105636514i bk7: 24576a 105636235i bk8: 24576a 105636514i bk9: 25472a 105636385i bk10: 26624a 105635419i bk11: 26624a 105636498i bk12: 26624a 105630137i bk13: 26624a 105459322i bk14: 26624a 105636016i bk15: 26624a 99749715i 
dram_util_bins: 0 0 0 0 0 0 0 0 0 0
dram_eff_bins: 0 0 0 0 0 0 0 0 0 0
mrqq: max=2 avg=4.62908e-06
Cache L2_bank_004:
MSHR contents
MSHR: tag=0x80402f80, atomic=0 1 entries : 0x1803e10 :  mf: uid=35278471, sid01:w31, part=4, addr=0x80402f80, load , size=128, unknown  status = IN_PARTITION_DRAM (35212171), 

DRAM[4]: 16 bks, busW=4 BL=8 CL=12, tRRD=2 tCCD=6, tRCD=12 tRAS=28 tRP=12 tRC=40
n_cmd=105636514 n_nop=104794503 n_act=210497 n_pre=210481 n_req=210517 n_rd=421017 n_write=16 bw_util=0.007971
n_activity=10913729 dram_eff=0.07716
bk0: 26624a 105612757i bk1: 26624a 105630361i bk2: 26624a 105635770i bk3: 26624a 105635657i bk4: 26624a 105635487i bk5: 26624a 105636513i bk6: 26905a 105636514i bk7: 24576a 105636234i bk8: 24576a 105636493i bk9: 25472a 105636340i bk10: 26624a 105635452i bk11: 26624a 105636483i bk12: 26624a 105630118i bk13: 26624a 105459330i bk14: 26624a 105636008i bk15: 26624a 99749712i 
dram_util_bins: 0 0 0 0 0 0 0 0 0 0
dram_eff_bins: 0 0 0 0 0 0 0 0 0 0
mrqq: max=2 avg=4.81841e-06
Cache L2_bank_000:	Size = 131072 B (64 Set x 16-way x 128 byte line)
		Access = 210562, Miss = 210508 (1), PendingHit = 0 (0)
Cache L2_bank_001:	Size = 131072 B (64 Set x 16-way x 128 byte line)
		Access = 210559, Miss = 210505 (1), PendingHit = 0 (0)
Cache L2_bank_002:	Size = 131072 B (64 Set x 16-way x 128 byte line)
		Access = 210767, Miss = 210696 (1), PendingHit = 0 (0)
Cache L2_bank_003:	Size = 131072 B (64 Set x 16-way x 128 byte line)
		Access = 210559, Miss = 210505 (1), PendingHit = 0 (0)
Cache L2_bank_004:	Size = 131072 B (64 Set x 16-way x 128 byte line)
		Access = 210563, Miss = 210509 (1), PendingHit = 0 (0)
L2 Cache Total Miss Rate = 1.000

icnt_total_pkts_mem_to_simt=5264920
icnt_total_pkts_simt_to_mem=1053138

LD_mem_lat_dist  0 0 0 0 0 0 0 0 0 0 0 0 0 0 0 0 0 0 0 0 0 0 0 0 0 0 0
ST_mem_lat_dist  0 0 0 0 0 0 0 0 0 0 0 0 0 0 0 0 0 0 0 0 0 0 0 0 0 0 0
Traffic 0 Stat
%=================================
% Average latency = 1.00024
% Accepted packets = 0 at node 0 (avg = 0.000650182)
lat(1) = 1.00024;
thru(1,:) = [ 0 0 0 0 0 0 0 0 0 0 0 0 0 0 0.00299024 0.0029902 0.00299316 0.0029902 0.00299037 0 0 0 0 ];
% latency change    = 1
% throughput change = 1
Traffic 1 Stat
%=================================
% Average latency = 5.27578
% Accepted packets = 0 at node 0 (avg = 0.00325043)
lat(2) = 5.27578;
thru(2,:) = [ 0 0.0747599 0 0 0 0 0 0 0 0 0 0 0 0 0 0 0 0 0 0 0 0 0 ];
% latency change    = 0.810408
% throughput change = 0.799971
----------------------------Interconnect-DETAILS---------------------------------=======Traffic[0]class0 ======
Traffic[0]class0Overall average latency = 1.00024 (1 samples)
Traffic[0]class0Overall average accepted rate = 0.000650182 (1 samples)
Traffic[0]class0Overall min accepted rate = 0 (1 samples)
traffic_manager/latency_stat_0_freq = [ 0 1052972 1 0 1 7 2 1 7 12 7 0 0 0 0 0 0 0 0 0 0 0 0 0 0 0 0 0 0 0 0 0 0 0 0 0 0 0 0 0 0 0 0 0 0 0 0 0 0 0 0 0 0 0 0 0 0 0 0 0 0 0 0 0 0 0 0 0 0 0 0 0 0 0 0 0 0 0 0 0 0 0 0 0 0 0 0 0 0 0 0 0 0 0 0 0 0 0 0 0 0 0 0 0 0 0 0 0 0 0 0 0 0 0 0 0 0 0 0 0 0 0 0 0 0 0 0 0 0 0 0 0 0 0 0 0 0 0 0 0 0 0 0 0 0 0 0 0 0 0 0 0 0 0 0 0 0 0 0 0 0 0 0 0 0 0 0 0 0 0 0 0 0 0 0 0 0 0 0 0 0 0 0 0 0 0 0 0 0 0 0 0 0 0 0 0 0 0 0 0 0 0 0 0 0 0 0 0 0 0 0 0 0 0 0 0 0 0 0 0 0 0 0 0 0 0 0 0 0 0 0 0 0 0 0 0 0 0 0 0 0 0 0 0 0 0 0 0 0 0 0 0 0 0 0 0 0 0 0 0 0 0 0 0 0 0 0 0 0 0 0 0 0 0 0 0 0 0 0 0 0 0 0 0 0 0 0 0 0 0 0 0 0 0 0 0 0 0 0 0 0 0 0 0 0 0 0 0 0 0 0 0 0 0 0 0 0 0 0 0 0 0 0 0 0 0 0 0 0 0 0 0 0 0 0 0 0 0 0 0 0 0 0 0 0 0 0 0 0 0 0 0 0 0 0 0 0 0 0 0 0 0 0 0 0 0 0 0 0 0 0 0 0 0 0 0 0 0 0 0 0 0 0 0 0 0 0 0 0 0 0 0 0 0 0 0 0 0 0 0 0 0 0 0 0 0 0 0 0 0 0 0 0 0 0 0 0 0 0 0 0 0 0 0 0 0 0 0 0 0 0 0 0 0 0 0 0 0 0 0 0 0 0 0 0 0 0 0 0 0 0 0 0 0 0 0 0 0 0 0 0 0 0 0 0 0 0 0 0 0 0 0 0 0 0 0 0 0 0 0 0 0 0 0 0 0 0 0 0 0 0 0 0 0 0 0 0 0 0 0 0 0 0 0 0 0 0 0 0 0 0 0 0 0 0 0 0 0 0 0 0 0 0 0 0 0 0 0 0 0 0 0 0 0 0 0 0 0 0 0 0 0 0 0 0 0 0 0 0 0 0 0 0 0 0 0 0 0 0 0 0 0 0 0 0 0 0 0 0 0 0 0 0 0 0 0 0 0 0 0 0 0 0 0 0 0 0 0 0 0 0 0 0 0 0 0 0 0 0 0 0 0 0 0 0 0 0 0 0 0 0 0 0 0 0 0 0 0 0 0 0 0 0 0 0 0 0 0 0 0 0 0 0 0 0 0 0 0 0 0 0 0 0 0 0 0 0 0 0 0 0 0 0 0 0 0 0 0 0 0 0 0 0 0 0 0 0 0 0 0 0 0 0 0 0 0 0 0 0 0 0 0 0 0 0 0 0 0 0 0 0 0 0 0 0 0 0 0 0 0 0 0 0 0 0 0 0 0 0 0 0 0 0 0 0 0 0 0 0 0 0 0 0 0 0 0 0 0 0 0 0 0 0 0 0 0 0 0 0 0 0 0 0 0 0 0 0 0 0 0 0 0 0 0 0 0 0 0 0 0 0 0 0 0 0 0 0 0 0 0 0 0 0 0 0 0 0 0 0 0 0 0 0 0 0 0 0 0 0 0 0 0 0 0 0 0 0 0 0 0 0 0 0 0 0 0 0 0 0 0 0 0 0 0 0 0 0 0 0 0 0 0 0 0 0 0 0 0 0 0 0 0 0 0 0 0 0 0 0 0 0 0 0 0 0 0 0 0 0 0 0 0 0 0 0 0 0 0 0 0 0 0 0 0 0 0 0 0 0 0 0 0 0 0 0 0 0 0 0 0 0 0 0 0 0 0 0 0 0 0 0 0 0 0 0 0 0 0 0 0 0 0 0 0 0 0 0 0 0 0 0 0 0 0 0 0 0 0 0 0 0 0 0 0 0 0 0 0 0 0 0 0 0 0 0 0 0 0 0 0 0 0 0 0 0 0 0 0 0 0 0 0 0 0 0 0 0 0 0 0 0 0 0 0 0 0 0 0 0 0 0 0 0 0 0 0 0 0 0 0 0 0 0 0 0 0 0 0 0 0 0 0 0 0 0 0 0 0 0 0 ];
Traffic[0]class1Average hops = 1 (1053010 samples)
traffic_manager/hop_stats_freq = [ 0 1053010 0 0 0 0 0 0 0 0 0 0 0 0 0 0 0 0 0 0 ];
=======Traffic[1]class0 ======
Traffic[1]class0Overall average latency = 5.27578 (1 samples)
Traffic[1]class0Overall average accepted rate = 0.00325043 (1 samples)
Traffic[1]class0Overall min accepted rate = 0 (1 samples)
traffic_manager/latency_stat_0_freq = [ 0 22 5 3 1 779983 270765 17 55 3 0 18 16 1024 1039 0 0 0 0 16 0 15 1 0 0 1 1 0 0 1 0 0 1 0 0 0 0 1 1 0 1 2 0 1 1 0 1 1 0 1 0 1 0 0 0 0 1 0 0 1 0 1 1 0 0 0 0 0 0 0 1 1 0 0 2 0 4 0 0 0 0 0 0 0 0 0 0 0 0 0 0 0 0 0 0 0 0 0 0 0 0 0 0 0 0 0 0 0 0 0 0 0 0 0 0 0 0 0 0 0 0 0 0 0 0 0 0 0 0 0 0 0 0 0 0 0 0 0 0 0 0 0 0 0 0 0 0 0 0 0 0 0 0 0 0 0 0 0 0 0 0 0 0 0 0 0 0 0 0 0 0 0 0 0 0 0 0 0 0 0 0 0 0 0 0 0 0 0 0 0 0 0 0 0 0 0 0 0 0 0 0 0 0 0 0 0 0 0 0 0 0 0 0 0 0 0 0 0 0 0 0 0 0 0 0 0 0 0 0 0 0 0 0 0 0 0 0 0 0 0 0 0 0 0 0 0 0 0 0 0 0 0 0 0 0 0 0 0 0 0 0 0 0 0 0 0 0 0 0 0 0 0 0 0 0 0 0 0 0 0 0 0 0 0 0 0 0 0 0 0 0 0 0 0 0 0 0 0 0 0 0 0 0 0 0 0 0 0 0 0 0 0 0 0 0 0 0 0 0 0 0 0 0 0 0 0 0 0 0 0 0 0 0 0 0 0 0 0 0 0 0 0 0 0 0 0 0 0 0 0 0 0 0 0 0 0 0 0 0 0 0 0 0 0 0 0 0 0 0 0 0 0 0 0 0 0 0 0 0 0 0 0 0 0 0 0 0 0 0 0 0 0 0 0 0 0 0 0 0 0 0 0 0 0 0 0 0 0 0 0 0 0 0 0 0 0 0 0 0 0 0 0 0 0 0 0 0 0 0 0 0 0 0 0 0 0 0 0 0 0 0 0 0 0 0 0 0 0 0 0 0 0 0 0 0 0 0 0 0 0 0 0 0 0 0 0 0 0 0 0 0 0 0 0 0 0 0 0 0 0 0 0 0 0 0 0 0 0 0 0 0 0 0 0 0 0 0 0 0 0 0 0 0 0 0 0 0 0 0 0 0 0 0 0 0 0 0 0 0 0 0 0 0 0 0 0 0 0 0 0 0 0 0 0 0 0 0 0 0 0 0 0 0 0 0 0 0 0 0 0 0 0 0 0 0 0 0 0 0 0 0 0 0 0 0 0 0 0 0 0 0 0 0 0 0 0 0 0 0 0 0 0 0 0 0 0 0 0 0 0 0 0 0 0 0 0 0 0 0 0 0 0 0 0 0 0 0 0 0 0 0 0 0 0 0 0 0 0 0 0 0 0 0 0 0 0 0 0 0 0 0 0 0 0 0 0 0 0 0 0 0 0 0 0 0 0 0 0 0 0 0 0 0 0 0 0 0 0 0 0 0 0 0 0 0 0 0 0 0 0 0 0 0 0 0 0 0 0 0 0 0 0 0 0 0 0 0 0 0 0 0 0 0 0 0 0 0 0 0 0 0 0 0 0 0 0 0 0 0 0 0 0 0 0 0 0 0 0 0 0 0 0 0 0 0 0 0 0 0 0 0 0 0 0 0 0 0 0 0 0 0 0 0 0 0 0 0 0 0 0 0 0 0 0 0 0 0 0 0 0 0 0 0 0 0 0 0 0 0 0 0 0 0 0 0 0 0 0 0 0 0 0 0 0 0 0 0 0 0 0 0 0 0 0 0 0 0 0 0 0 0 0 0 0 0 0 0 0 0 0 0 0 0 0 0 0 0 0 0 0 0 0 0 0 0 0 0 0 0 0 0 0 0 0 0 0 0 0 0 0 0 0 0 0 0 0 0 0 0 0 0 0 0 0 0 0 0 0 0 0 0 0 0 0 0 0 0 0 0 0 0 0 0 0 0 0 0 0 0 0 0 0 0 0 0 0 0 0 0 0 0 0 0 0 0 0 0 0 0 0 0 0 0 0 0 0 0 0 0 0 0 0 0 0 0 0 0 0 0 0 0 0 0 0 0 0 0 0 0 0 0 0 0 0 0 0 0 0 0 0 0 0 0 0 0 0 0 0 0 0 0 0 0 0 0 0 0 0 0 0 0 0 0 0 0 0 0 0 0 0 0 0 0 0 0 0 0 0 0 0 0 0 0 0 0 0 0 0 0 0 0 0 0 0 0 0 0 0 0 0 ];
Traffic[1]class1Average hops = 1 (1053010 samples)
traffic_manager/hop_stats_freq = [ 0 1053010 0 0 0 0 0 0 0 0 0 0 0 0 0 0 0 0 0 0 ];
----------------------------END-of-Interconnect-DETAILS-------------------------

gpgpu_simulation_time = 0 days, 0 hrs, 35 min, 51 sec (2151 sec)
gpgpu_simulation_rate = 3909 (inst/sec)
gpgpu_simulation_rate = 16370 (cycle/sec)
GPGPU-Sim: synchronize waiting for inactive GPU simulation
GPGPU-Sim API: Stream Manager State
GPGPU-Sim: detected inactive GPU simulation thread

kernel '_Z12atax_kernel2PfS_S_' transfer to GPU hardware scheduler
kernel_name = _Z12atax_kernel2PfS_S_ 
kernel_launch_uid = 2 
gpu_sim_cycle = 174516
gpu_sim_insn = 8407040
gpu_ipc =      48.1735
gpu_tot_sim_cycle = 35386688
gpu_tot_sim_insn = 16817152
gpu_tot_ipc =       0.4752
gpu_tot_issued_cta = 0
gpu_stall_dramfull = 0
gpu_stall_icnt2sh    = 215
gpu_total_sim_rate=7756
Cache L1D_000:	Size = 16384 B (32 Set x 4-way x 128 byte line)
		Access = 0, Miss = 0 (-nan), PendingHit = 0 (-nan)
Cache L1D_001:	Size = 16384 B (32 Set x 4-way x 128 byte line)
		Access = 1081376, Miss = 1052975 (0.974), PendingHit = 20209 (0.0187)
Cache L1D_002:	Size = 16384 B (32 Set x 4-way x 128 byte line)
		Access = 65568, Miss = 32832 (0.501), PendingHit = 222 (0.00339)
Cache L1D_003:	Size = 16384 B (32 Set x 4-way x 128 byte line)
		Access = 0, Miss = 0 (-nan), PendingHit = 0 (-nan)
Cache L1D_004:	Size = 16384 B (32 Set x 4-way x 128 byte line)
		Access = 0, Miss = 0 (-nan), PendingHit = 0 (-nan)
Cache L1D_005:	Size = 16384 B (32 Set x 4-way x 128 byte line)
		Access = 0, Miss = 0 (-nan), PendingHit = 0 (-nan)
Cache L1D_006:	Size = 16384 B (32 Set x 4-way x 128 byte line)
		Access = 0, Miss = 0 (-nan), PendingHit = 0 (-nan)
Cache L1D_007:	Size = 16384 B (32 Set x 4-way x 128 byte line)
		Access = 0, Miss = 0 (-nan), PendingHit = 0 (-nan)
Cache L1D_008:	Size = 16384 B (32 Set x 4-way x 128 byte line)
		Access = 0, Miss = 0 (-nan), PendingHit = 0 (-nan)
Cache L1D_009:	Size = 16384 B (32 Set x 4-way x 128 byte line)
		Access = 0, Miss = 0 (-nan), PendingHit = 0 (-nan)
Cache L1D_010:	Size = 16384 B (32 Set x 4-way x 128 byte line)
		Access = 0, Miss = 0 (-nan), PendingHit = 0 (-nan)
Cache L1D_011:	Size = 16384 B (32 Set x 4-way x 128 byte line)
		Access = 0, Miss = 0 (-nan), PendingHit = 0 (-nan)
Cache L1D_012:	Size = 16384 B (32 Set x 4-way x 128 byte line)
		Access = 0, Miss = 0 (-nan), PendingHit = 0 (-nan)
Cache L1D_013:	Size = 16384 B (32 Set x 4-way x 128 byte line)
		Access = 0, Miss = 0 (-nan), PendingHit = 0 (-nan)
total_dl1_misses=1085807
total_dl1_accesses=1146944
total_dl1_miss_rate= 0.946696
Shader 0 dynamic_warp_id issue ditsribution:
dynamic_warp_id:

distro:

gpgpu_n_tot_thrd_icount = 16821248
gpgpu_n_tot_w_icount = 525664
gpgpu_n_icache_hits = 328288
gpgpu_n_icache_misses = 160
gpgpu_n_l1dcache_read_hits = 40706
gpgpu_n_l1dcache_read_misses = 1106238
gpgpu_n_l1dcache_write_accesses = 64
gpgpu_n_l1dcache_wirte_misses = 64
gpgpu_n_tcache_hits = 0
gpgpu_n_tcache_misses = 0
gpgpu_n_ccache_hits = 128
gpgpu_n_ccache_misses = 64
gpgpu_n_stall_shd_mem = 35050132
gpgpu_n_mem_read_local = 0
gpgpu_n_mem_write_local = 0
gpgpu_n_mem_read_global = 1085807
gpgpu_n_mem_write_global = 64
gpgpu_n_mem_texture = 0
gpgpu_n_mem_const = 2
gpgpu_n_load_insn  = 8392704
gpgpu_n_store_insn = 4096
gpgpu_n_shmem_insn = 0
gpgpu_n_tex_insn = 0
gpgpu_n_const_mem_insn = 0
gpgpu_n_param_mem_insn = 12288
gpgpu_n_shmem_bkconflict = 0
gpgpu_n_cache_bkconflict = 0
gpgpu_n_intrawarp_mshr_merge = 0
gpgpu_n_cmem_portconflict = 0
gpgpu_stall_shd_mem[c_mem][bk_conf] = 0
gpgpu_stall_shd_mem[c_mem][mshr_rc] = 0
gpgpu_stall_shd_mem[c_mem][icnt_rc] = 0
gpgpu_stall_shd_mem[t_mem][mshr_rc] = 0
gpgpu_stall_shd_mem[t_mem][icnt_rc] = 0
gpgpu_stall_shd_mem[s_mem][bk_conf] = 0
gpgpu_stall_shd_mem[gl_mem][bk_conf] = 0
gpgpu_stall_shd_mem[gl_mem][coal_stall] = 35050132
gpgpu_stall_shd_mem[g_mem_ld][mshr_rc] = 0
gpgpu_stall_shd_mem[g_mem_ld][icnt_rc] = 0
gpgpu_stall_shd_mem[g_mem_ld][wb_icnt_rc] = 0
gpgpu_stall_shd_mem[g_mem_ld][wb_rsrv_fail] = 0
gpgpu_stall_shd_mem[g_mem_st][mshr_rc] = 0
gpgpu_stall_shd_mem[g_mem_st][icnt_rc] = 0
gpgpu_stall_shd_mem[g_mem_st][wb_icnt_rc] = 0
gpgpu_stall_shd_mem[g_mem_st][wb_rsrv_fail] = 0
gpgpu_stall_shd_mem[l_mem_ld][mshr_rc] = 0
gpgpu_stall_shd_mem[l_mem_ld][icnt_rc] = 0
gpgpu_stall_shd_mem[l_mem_ld][wb_icnt_rc] = 0
gpgpu_stall_shd_mem[l_mem_ld][wb_rsrv_fail] = 0
gpgpu_stall_shd_mem[l_mem_st][mshr_rc] = 0
gpgpu_stall_shd_mem[l_mem_st][icnt_rc] = 0
gpgpu_stall_shd_mem[l_mem_ld][wb_icnt_rc] = 0
gpgpu_stall_shd_mem[l_mem_ld][wb_rsrv_fail] = 0
gpu_reg_bank_conflict_stalls = 0
Warp Occupancy Distribution:
Stall:52495480	W0_Idle:17673424	W0_Scoreboard:78860	W1:0	W2:0	W3:0	W4:0	W5:0	W6:0	W7:0	W8:0	W9:0	W10:0	W11:0	W12:0	W13:0	W14:0	W15:0	W16:0	W17:0	W18:0	W19:0	W20:0	W21:0	W22:0	W23:0	W24:0	W25:0	W26:0	W27:0	W28:0	W29:0	W30:0	W31:0	W32:525664
maxmrqlatency = 13 
maxdqlatency = 0 
maxmflatency = 173 
averagemflatency = 132 
max_icnt2mem_latency = 11 
max_icnt2sh_latency = 35386687 
mrq_lat_table:1085096 	236 	259 	62 	0 	0 	0 	0 	0 	0 	0 	0 	0 	0 	0 	0 	0 	0 	0 	0 	0 	0 	0 	0 	0 	0 	0 	0 	0 	0 	0 	0 	
dq_lat_table:0 	0 	0 	0 	0 	0 	0 	0 	0 	0 	0 	0 	0 	0 	0 	0 	0 	0 	0 	0 	0 	0 	0 	0 	0 	0 	0 	0 	0 	0 	0 	0 	
mf_lat_table:0 	0 	0 	0 	0 	0 	30988 	1054885 	0 	0 	0 	0 	0 	0 	0 	0 	0 	0 	0 	0 	0 	0 	0 	0 	0 	0 	0 	0 	0 	0 	0 	0 	
icnt2mem_lat_table:4 	1085805 	60 	9 	0 	0 	0 	0 	0 	0 	0 	0 	0 	0 	0 	0 	0 	0 	0 	0 	0 	0 	0 	0 	
icnt2sh_lat_table:0 	1078158 	7348 	227 	58 	18 	0 	0 	0 	0 	0 	0 	0 	0 	0 	0 	0 	0 	0 	0 	0 	0 	0 	0 	
mf_lat_pw_table:16 	48 	0 	0 	0 	0 	358 	70415 	0 	0 	0 	0 	0 	0 	0 	0 	0 	0 	0 	0 	0 	0 	0 	0 	0 	0 	0 	0 	0 	0 	0 	0 	
maximum concurrent accesses to same row:
dram[0]:        32        32        32        32        32        32        32        32        32        32        32        32        32        32        32        32 
dram[1]:        32        32        32        32        32        32        32        32        32        32        32        32        32        32        32        32 
dram[2]:        32        32        32        32        32        32        32        32        32        32        32        32        32        32        32        32 
dram[3]:        32        32        32        32        32        32        32        32        32        32        32        32        32        32        32        32 
dram[4]:        32        32        32        32        32        32        32        32        32        32        32        32        32        32        32        32 
maximum service time to same row:
dram[0]:     13568     13560     13569     13561     13540     13560     13533     13557     13574     13570     13543     13550     13553     13549     13573     13562 
dram[1]:     13558     13579     13584     13603     13560     13553     13537     13587     13593     13596     13549     13563     13557     13583     13579     13576 
dram[2]:     13580     13590     13589     13606     13553     13560     13558     13551     13563     13576     13556     13548     13546     13575     13591     13585 
dram[3]:     13560     13546     13560     13545     13540     13545     13544     13565     13588     13580     13544     13545     13551     13555     13563     13559 
dram[4]:     13563     13585     13590     13584     13555     13549     13564     13580     13593     13589     13578     13593     13588     13567     13577     13563 
average row accesses per activate:
dram[0]:  1.030542  1.030244  1.030244  1.030244  1.030244  1.030244  1.030608  1.030244  1.030244  1.030193  1.030244  1.030244  1.030244  1.030244  1.030244  1.030244 
dram[1]:  1.030317  1.030244  1.030244  1.030244  1.030244  1.030244  1.030834  1.030244  1.030244  1.030193  1.030244  1.030244  1.030244  1.030244  1.030244  1.030244 
dram[2]:  1.030244  1.030244  1.030244  1.030244  1.030244  1.030244  1.030259  1.030244  1.030244  1.030193  1.030244  1.030244  1.030244  1.030244  1.030244  1.030244 
dram[3]:  1.030244  1.030244  1.030244  1.030244  1.030244  1.030244  1.031584  1.030244  1.030244  1.030198  1.030244  1.030244  1.030244  1.030244  1.030244  1.030244 
dram[4]:  1.030244  1.030244  1.030244  1.030244  1.030244  1.030244  1.031659  1.030244  1.030244  1.030198  1.030244  1.030244  1.030244  1.030244  1.030244  1.030244 
average row locality = 1085653/1053732 = 1.030293
number of total memory accesses made:
dram[0]:         0         0         0         0         0         0         0         0         0         0         0         0         0         0         0         0 
dram[1]:         0         0         0         0         0         0         0         0         0         0         0         0         0         0         0         0 
dram[2]:         0         0         0         0         0         0         0         0         0         0         0         0         0         0         0         0 
dram[3]:         0         0         0         0         0         0         0         0         0         0         0         0         0         0         0         0 
dram[4]:         0         0         0         0         0         0         0         0         0         0         0         0         0         0         0         0 
total accesses: 0
min_bank_accesses = 0!
min_chip_accesses = 0!
number of total read accesses:
dram[0]:     13733     13728     13728     13728     13728     13728     13928     12672     12672     13068     13728     13728     13728     13728     13728     13728 
dram[1]:     13730     13728     13728     13728     13728     13728     13929     12672     12672     13068     13728     13728     13728     13728     13728     13728 
dram[2]:     13728     13728     13728     13728     13728     13728     14118     12672     12672     13068     13728     13728     13728     13728     13728     13728 
dram[3]:     13728     13728     13728     13728     13728     13728     13867     12672     12672     13134     13728     13728     13728     13728     13728     13728 
dram[4]:     13728     13728     13728     13728     13728     13728     13868     12672     12672     13134     13728     13728     13728     13728     13728     13728 
total reads: 1085589
bank skew: 14118/12672 = 1.11
chip skew: 217266/217079 = 1.00
number of total write accesses:
dram[0]:         0         0         0         0         0         0        12         0         0         0         0         0         0         0         0         0 
dram[1]:         0         0         0         0         0         0        12         0         0         0         0         0         0         0         0         0 
dram[2]:         0         0         0         0         0         0        12         0         0         0         0         0         0         0         0         0 
dram[3]:         0         0         0         0         0         0        14         0         0         0         0         0         0         0         0         0 
dram[4]:         0         0         0         0         0         0        14         0         0         0         0         0         0         0         0         0 
total reads: 64
min_bank_accesses = 0!
chip skew: 14/12 = 1.17
average mf latency per bank:
dram[0]:        132       132       132       132       132       132       133       132       132       132       132       132       132       132       132       132
dram[1]:        132       132       132       132       132       132       132       132       132       132       132       132       132       132       132       132
dram[2]:        132       132       132       132       132       132       133       132       132       132       132       132       132       132       132       132
dram[3]:        132       132       132       132       132       132       132       132       132       132       132       132       132       132       132       132
dram[4]:        132       132       132       132       132       132       132       132       132       132       132       132       132       132       132       132
maximum mf latency per bank:
dram[0]:        136       136       136       135       133       137       169       143       134       151       144       135       141       135       135       137
dram[1]:        153       136       139       137       135       137       160       134       137       152       137       135       141       140       135       140
dram[2]:        146       136       136       143       139       137       162       135       136       154       137       136       141       135       137       136
dram[3]:        135       134       136       138       135       137       173       136       135       159       136       136       141       139       137       136
dram[4]:        139       133       136       137       137       140       172       135       134       149       137       137       141       138       136       135

Number of Memory Banks Accessed per Memory Operation per Warp (from 0):
0	0	0	0	0	0	0	0	0	0	0	0	0	0	0	0	0	0	0	0	0	0	0	0	0	0	0	0	0	0	0	0	0	0	0	0	0	0	0	0	0	0	0	0	0	0	0	0	0	0	0	0	0	0	0	0	0	0	0	0	0	0	0	0	0	0	0	0	0	0	0	0	0	0	0	0	0	0	0	0	
Average # of Memory Banks Accessed per Memory Operation per Warp=-nan

position of mrq chosen
0	0	0	0	0	0	0	0	0	0	0	0	0	0	0	0	

average position of mrq chosen = -nan
gpgpu_l2_write_miss = 0
gpgpu_l2_write_access = 0
gpgpu_l2_read_miss = 0
gpgpu_l2_read_access = 0
Cache L2_bank_000:
MSHR contents

DRAM[0]: 16 bks, busW=4 BL=8 CL=12, tRRD=2 tCCD=6, tRCD=12 tRAS=28 tRP=12 tRC=40
n_cmd=106160060 n_nop=105304464 n_act=210713 n_pre=210697 n_req=217093 n_rd=434162 n_write=24 bw_util=0.00818
n_activity=11012170 dram_eff=0.07886
bk0: 27466a 106134576i bk1: 27456a 106152169i bk2: 27456a 106157591i bk3: 27456a 106157611i bk4: 27456a 106157289i bk5: 27456a 106158503i bk6: 27856a 106158285i bk7: 25344a 106157972i bk8: 25344a 106158292i bk9: 26136a 106158298i bk10: 27456a 106157367i bk11: 27456a 106158428i bk12: 27456a 106152045i bk13: 27456a 105981071i bk14: 27456a 106157547i bk15: 27456a 100266499i 
dram_util_bins: 0 0 0 0 0 0 0 0 0 0
dram_eff_bins: 0 0 0 0 0 0 0 0 0 0
mrqq: max=3 avg=1.96307e-05
Cache L2_bank_001:
MSHR contents
MSHR: tag=0x80401880, atomic=0 1 entries : 0x1bab430 :  mf: uid=35510036, sid02:w17, part=1, addr=0x80401880, load , size=128, unknown  status = IN_PARTITION_DRAM (35386687), 

DRAM[1]: 16 bks, busW=4 BL=8 CL=12, tRRD=2 tCCD=6, tRCD=12 tRAS=28 tRP=12 tRC=40
n_cmd=106160060 n_nop=105304475 n_act=210710 n_pre=210694 n_req=217091 n_rd=434157 n_write=24 bw_util=0.00818
n_activity=11012122 dram_eff=0.07886
bk0: 27460a 106134618i bk1: 27456a 106152220i bk2: 27456a 106157646i bk3: 27456a 106157367i bk4: 27456a 106157273i bk5: 27456a 106158452i bk6: 27857a 106158455i bk7: 25344a 106158124i bk8: 25344a 106158440i bk9: 26136a 106158189i bk10: 27456a 106157201i bk11: 27456a 106158163i bk12: 27456a 106152253i bk13: 27456a 105981029i bk14: 27456a 106157627i bk15: 27456a 100266607i 
dram_util_bins: 0 0 0 0 0 0 0 0 0 0
dram_eff_bins: 0 0 0 0 0 0 0 0 0 0
mrqq: max=2 avg=1.56744e-05
Cache L2_bank_002:
MSHR contents

DRAM[2]: 16 bks, busW=4 BL=8 CL=12, tRRD=2 tCCD=6, tRCD=12 tRAS=28 tRP=12 tRC=40
n_cmd=106160060 n_nop=105303720 n_act=210900 n_pre=210884 n_req=217278 n_rd=434532 n_write=24 bw_util=0.008187
n_activity=11021410 dram_eff=0.07886
bk0: 27456a 106134609i bk1: 27456a 106152314i bk2: 27456a 106157650i bk3: 27456a 106157496i bk4: 27456a 106157255i bk5: 27456a 106158356i bk6: 28236a 106158311i bk7: 25344a 106158120i bk8: 25344a 106158313i bk9: 26136a 106158079i bk10: 27456a 106157014i bk11: 27456a 106158344i bk12: 27456a 106152307i bk13: 27456a 105981095i bk14: 27456a 106157525i bk15: 27456a 100261309i 
dram_util_bins: 0 0 0 0 0 0 0 0 0 0
dram_eff_bins: 0 0 0 0 0 0 0 0 0 0
mrqq: max=2 avg=1.69555e-05
Cache L2_bank_003:
MSHR contents

DRAM[3]: 16 bks, busW=4 BL=8 CL=12, tRRD=2 tCCD=6, tRCD=12 tRAS=28 tRP=12 tRC=40
n_cmd=106160060 n_nop=105304476 n_act=210705 n_pre=210689 n_req=217095 n_rd=434162 n_write=28 bw_util=0.00818
n_activity=11011905 dram_eff=0.07886
bk0: 27456a 106134560i bk1: 27456a 106152215i bk2: 27456a 106157617i bk3: 27456a 106157597i bk4: 27456a 106157371i bk5: 27456a 106158301i bk6: 27734a 106158289i bk7: 25344a 106158061i bk8: 25344a 106158281i bk9: 26268a 106158067i bk10: 27456a 106157209i bk11: 27456a 106158470i bk12: 27456a 106152266i bk13: 27456a 105981070i bk14: 27456a 106157578i bk15: 27456a 100266713i 
dram_util_bins: 0 0 0 0 0 0 0 0 0 0
dram_eff_bins: 0 0 0 0 0 0 0 0 0 0
mrqq: max=3 avg=1.89808e-05
Cache L2_bank_004:
MSHR contents

DRAM[4]: 16 bks, busW=4 BL=8 CL=12, tRRD=2 tCCD=6, tRCD=12 tRAS=28 tRP=12 tRC=40
n_cmd=106160060 n_nop=105304474 n_act=210705 n_pre=210689 n_req=217096 n_rd=434164 n_write=28 bw_util=0.00818
n_activity=11012219 dram_eff=0.07886
bk0: 27456a 106134551i bk1: 27456a 106152106i bk2: 27456a 106157623i bk3: 27456a 106157586i bk4: 27456a 106157192i bk5: 27456a 106158477i bk6: 27736a 106158430i bk7: 25344a 106158032i bk8: 25344a 106158275i bk9: 26268a 106158078i bk10: 27456a 106157288i bk11: 27456a 106158206i bk12: 27456a 106152218i bk13: 27456a 105981279i bk14: 27456a 106157644i bk15: 27456a 100266724i 
dram_util_bins: 0 0 0 0 0 0 0 0 0 0
dram_eff_bins: 0 0 0 0 0 0 0 0 0 0
mrqq: max=3 avg=1.86982e-05
Cache L2_bank_000:	Size = 131072 B (64 Set x 16-way x 128 byte line)
		Access = 217136, Miss = 217081 (1), PendingHit = 0 (0)
Cache L2_bank_001:	Size = 131072 B (64 Set x 16-way x 128 byte line)
		Access = 217133, Miss = 217079 (1), PendingHit = 0 (0)
Cache L2_bank_002:	Size = 131072 B (64 Set x 16-way x 128 byte line)
		Access = 217337, Miss = 217266 (1), PendingHit = 0 (0)
Cache L2_bank_003:	Size = 131072 B (64 Set x 16-way x 128 byte line)
		Access = 217135, Miss = 217081 (1), PendingHit = 0 (0)
Cache L2_bank_004:	Size = 131072 B (64 Set x 16-way x 128 byte line)
		Access = 217137, Miss = 217082 (1), PendingHit = 0 (0)
L2 Cache Total Miss Rate = 1.000

icnt_total_pkts_mem_to_simt=5429130
icnt_total_pkts_simt_to_mem=1086134

LD_mem_lat_dist  0 0 0 0 0 0 0 0 0 0 0 0 0 0 0 0 0 0 0 0 0 0 0 0 0 0 0
ST_mem_lat_dist  0 0 0 0 0 0 0 0 0 0 0 0 0 0 0 0 0 0 0 0 0 0 0 0 0 0 0
Traffic 0 Stat
%=================================
% Average latency = 1.00423
% Accepted packets = 0 at node 0 (avg = 0.00411026)
lat(3) = 1.00423;
thru(3,:) = [ 0 0 0 0 0 0 0 0 0 0 0 0 0 0 0.0189038 0.0189038 0.0188923 0.0189324 0.0189038 0 0 0 0 ];
% latency change    = 4.25356
% throughput change = 0.209191
Traffic 1 Stat
%=================================
% Average latency = 5.81721
% Accepted packets = 0 at node 0 (avg = 0.0204554)
lat(4) = 5.81721;
thru(4,:) = [ 0 0 0.470474 0 0 0 0 0 0 0 0 0 0 0 0 0 0 0 0 0 0 0 0 ];
% latency change    = 0.827369
% throughput change = 0.799062
----------------------------Interconnect-DETAILS---------------------------------=======Traffic[0]class0 ======
Traffic[0]class0Overall average latency = 1.00224 (2 samples)
Traffic[0]class0Overall average accepted rate = 0.00238022 (2 samples)
Traffic[0]class0Overall min accepted rate = 0 (2 samples)
traffic_manager/latency_stat_0_freq = [ 0 32834 1 0 0 31 0 0 2 0 0 0 0 0 0 0 0 0 0 0 0 0 0 0 0 0 0 0 0 0 0 0 0 0 0 0 0 0 0 0 0 0 0 0 0 0 0 0 0 0 0 0 0 0 0 0 0 0 0 0 0 0 0 0 0 0 0 0 0 0 0 0 0 0 0 0 0 0 0 0 0 0 0 0 0 0 0 0 0 0 0 0 0 0 0 0 0 0 0 0 0 0 0 0 0 0 0 0 0 0 0 0 0 0 0 0 0 0 0 0 0 0 0 0 0 0 0 0 0 0 0 0 0 0 0 0 0 0 0 0 0 0 0 0 0 0 0 0 0 0 0 0 0 0 0 0 0 0 0 0 0 0 0 0 0 0 0 0 0 0 0 0 0 0 0 0 0 0 0 0 0 0 0 0 0 0 0 0 0 0 0 0 0 0 0 0 0 0 0 0 0 0 0 0 0 0 0 0 0 0 0 0 0 0 0 0 0 0 0 0 0 0 0 0 0 0 0 0 0 0 0 0 0 0 0 0 0 0 0 0 0 0 0 0 0 0 0 0 0 0 0 0 0 0 0 0 0 0 0 0 0 0 0 0 0 0 0 0 0 0 0 0 0 0 0 0 0 0 0 0 0 0 0 0 0 0 0 0 0 0 0 0 0 0 0 0 0 0 0 0 0 0 0 0 0 0 0 0 0 0 0 0 0 0 0 0 0 0 0 0 0 0 0 0 0 0 0 0 0 0 0 0 0 0 0 0 0 0 0 0 0 0 0 0 0 0 0 0 0 0 0 0 0 0 0 0 0 0 0 0 0 0 0 0 0 0 0 0 0 0 0 0 0 0 0 0 0 0 0 0 0 0 0 0 0 0 0 0 0 0 0 0 0 0 0 0 0 0 0 0 0 0 0 0 0 0 0 0 0 0 0 0 0 0 0 0 0 0 0 0 0 0 0 0 0 0 0 0 0 0 0 0 0 0 0 0 0 0 0 0 0 0 0 0 0 0 0 0 0 0 0 0 0 0 0 0 0 0 0 0 0 0 0 0 0 0 0 0 0 0 0 0 0 0 0 0 0 0 0 0 0 0 0 0 0 0 0 0 0 0 0 0 0 0 0 0 0 0 0 0 0 0 0 0 0 0 0 0 0 0 0 0 0 0 0 0 0 0 0 0 0 0 0 0 0 0 0 0 0 0 0 0 0 0 0 0 0 0 0 0 0 0 0 0 0 0 0 0 0 0 0 0 0 0 0 0 0 0 0 0 0 0 0 0 0 0 0 0 0 0 0 0 0 0 0 0 0 0 0 0 0 0 0 0 0 0 0 0 0 0 0 0 0 0 0 0 0 0 0 0 0 0 0 0 0 0 0 0 0 0 0 0 0 0 0 0 0 0 0 0 0 0 0 0 0 0 0 0 0 0 0 0 0 0 0 0 0 0 0 0 0 0 0 0 0 0 0 0 0 0 0 0 0 0 0 0 0 0 0 0 0 0 0 0 0 0 0 0 0 0 0 0 0 0 0 0 0 0 0 0 0 0 0 0 0 0 0 0 0 0 0 0 0 0 0 0 0 0 0 0 0 0 0 0 0 0 0 0 0 0 0 0 0 0 0 0 0 0 0 0 0 0 0 0 0 0 0 0 0 0 0 0 0 0 0 0 0 0 0 0 0 0 0 0 0 0 0 0 0 0 0 0 0 0 0 0 0 0 0 0 0 0 0 0 0 0 0 0 0 0 0 0 0 0 0 0 0 0 0 0 0 0 0 0 0 0 0 0 0 0 0 0 0 0 0 0 0 0 0 0 0 0 0 0 0 0 0 0 0 0 0 0 0 0 0 0 0 0 0 0 0 0 0 0 0 0 0 0 0 0 0 0 0 0 0 0 0 0 0 0 0 0 0 0 0 0 0 0 0 0 0 0 0 0 0 0 0 0 0 0 0 0 0 0 0 0 0 0 0 0 0 0 0 0 0 0 0 0 0 0 0 0 0 0 0 0 0 0 0 0 0 0 0 0 0 0 0 0 0 0 0 0 0 0 0 0 0 0 0 0 0 0 0 0 0 0 0 0 0 0 0 0 0 0 0 0 0 0 0 0 0 0 0 0 0 0 0 0 0 0 0 0 0 0 0 0 0 0 0 0 0 0 0 0 0 0 0 0 0 0 0 0 0 0 0 0 0 0 0 0 0 0 0 0 0 0 0 0 0 0 0 0 0 0 0 0 0 0 0 0 0 0 0 0 0 0 0 0 0 0 ];
Traffic[0]class1Average hops = 1 (1085878 samples)
traffic_manager/hop_stats_freq = [ 0 1085878 0 0 0 0 0 0 0 0 0 0 0 0 0 0 0 0 0 0 ];
=======Traffic[1]class0 ======
Traffic[1]class0Overall average latency = 5.54649 (2 samples)
Traffic[1]class0Overall average accepted rate = 0.0118529 (2 samples)
Traffic[1]class0Overall min accepted rate = 0 (2 samples)
traffic_manager/latency_stat_0_freq = [ 0 28 1 2 0 23276 4137 802 3048 620 174 286 95 85 68 22 30 23 24 14 12 10 9 9 14 4 6 4 3 6 3 4 4 3 1 4 2 1 3 1 0 2 3 0 1 1 1 2 0 1 1 0 0 1 0 1 1 0 1 1 0 3 0 0 1 0 1 1 1 0 1 0 0 1 0 0 4 0 0 0 0 0 0 0 0 0 0 0 0 0 0 0 0 0 0 0 0 0 0 0 0 0 0 0 0 0 0 0 0 0 0 0 0 0 0 0 0 0 0 0 0 0 0 0 0 0 0 0 0 0 0 0 0 0 0 0 0 0 0 0 0 0 0 0 0 0 0 0 0 0 0 0 0 0 0 0 0 0 0 0 0 0 0 0 0 0 0 0 0 0 0 0 0 0 0 0 0 0 0 0 0 0 0 0 0 0 0 0 0 0 0 0 0 0 0 0 0 0 0 0 0 0 0 0 0 0 0 0 0 0 0 0 0 0 0 0 0 0 0 0 0 0 0 0 0 0 0 0 0 0 0 0 0 0 0 0 0 0 0 0 0 0 0 0 0 0 0 0 0 0 0 0 0 0 0 0 0 0 0 0 0 0 0 0 0 0 0 0 0 0 0 0 0 0 0 0 0 0 0 0 0 0 0 0 0 0 0 0 0 0 0 0 0 0 0 0 0 0 0 0 0 0 0 0 0 0 0 0 0 0 0 0 0 0 0 0 0 0 0 0 0 0 0 0 0 0 0 0 0 0 0 0 0 0 0 0 0 0 0 0 0 0 0 0 0 0 0 0 0 0 0 0 0 0 0 0 0 0 0 0 0 0 0 0 0 0 0 0 0 0 0 0 0 0 0 0 0 0 0 0 0 0 0 0 0 0 0 0 0 0 0 0 0 0 0 0 0 0 0 0 0 0 0 0 0 0 0 0 0 0 0 0 0 0 0 0 0 0 0 0 0 0 0 0 0 0 0 0 0 0 0 0 0 0 0 0 0 0 0 0 0 0 0 0 0 0 0 0 0 0 0 0 0 0 0 0 0 0 0 0 0 0 0 0 0 0 0 0 0 0 0 0 0 0 0 0 0 0 0 0 0 0 0 0 0 0 0 0 0 0 0 0 0 0 0 0 0 0 0 0 0 0 0 0 0 0 0 0 0 0 0 0 0 0 0 0 0 0 0 0 0 0 0 0 0 0 0 0 0 0 0 0 0 0 0 0 0 0 0 0 0 0 0 0 0 0 0 0 0 0 0 0 0 0 0 0 0 0 0 0 0 0 0 0 0 0 0 0 0 0 0 0 0 0 0 0 0 0 0 0 0 0 0 0 0 0 0 0 0 0 0 0 0 0 0 0 0 0 0 0 0 0 0 0 0 0 0 0 0 0 0 0 0 0 0 0 0 0 0 0 0 0 0 0 0 0 0 0 0 0 0 0 0 0 0 0 0 0 0 0 0 0 0 0 0 0 0 0 0 0 0 0 0 0 0 0 0 0 0 0 0 0 0 0 0 0 0 0 0 0 0 0 0 0 0 0 0 0 0 0 0 0 0 0 0 0 0 0 0 0 0 0 0 0 0 0 0 0 0 0 0 0 0 0 0 0 0 0 0 0 0 0 0 0 0 0 0 0 0 0 0 0 0 0 0 0 0 0 0 0 0 0 0 0 0 0 0 0 0 0 0 0 0 0 0 0 0 0 0 0 0 0 0 0 0 0 0 0 0 0 0 0 0 0 0 0 0 0 0 0 0 0 0 0 0 0 0 0 0 0 0 0 0 0 0 0 0 0 0 0 0 0 0 0 0 0 0 0 0 0 0 0 0 0 0 0 0 0 0 0 0 0 0 0 0 0 0 0 0 0 0 0 0 0 0 0 0 0 0 0 0 0 0 0 0 0 0 0 0 0 0 0 0 0 0 0 0 0 0 0 0 0 0 0 0 0 0 0 0 0 0 0 0 0 0 0 0 0 0 0 0 0 0 0 0 0 0 0 0 0 0 0 0 0 0 0 0 0 0 0 0 0 0 0 0 0 0 0 0 0 0 0 0 0 0 0 0 0 0 0 0 0 0 0 0 0 0 0 0 0 0 0 0 0 0 0 0 0 0 0 0 0 0 0 0 0 0 0 0 0 0 0 0 0 0 0 0 0 0 0 0 0 0 0 0 0 0 0 0 0 0 0 0 0 0 0 0 0 0 0 0 0 0 0 0 0 0 0 0 0 0 0 0 0 0 0 0 0 0 0 0 0 0 0 0 0 0 0 0 0 ];
Traffic[1]class1Average hops = 1 (1085878 samples)
traffic_manager/hop_stats_freq = [ 0 1085878 0 0 0 0 0 0 0 0 0 0 0 0 0 0 0 0 0 0 ];
----------------------------END-of-Interconnect-DETAILS-------------------------

gpgpu_simulation_time = 0 days, 0 hrs, 36 min, 8 sec (2168 sec)
gpgpu_simulation_rate = 7756 (inst/sec)
gpgpu_simulation_rate = 16322 (cycle/sec)
GPGPU-Sim: synchronize waiting for inactive GPU simulation
GPGPU-Sim API: Stream Manager State
GPGPU-Sim: detected inactive GPU simulation thread
GPU Runtime: 2168.423024s
