

        *** GPGPU-Sim Simulator Version 3.2.1  [build 15629] ***


               1=functional simulation only, 0=detailed performance simulator)
GPGPU-Sim: Configuration options:

-network_mode                           1 # Interconnection network mode
-inter_config_file   config_fermi_islip.icnt # Interconnection network config file
-gpgpu_ptx_use_cuobjdump                    1 # Use cuobjdump to extract ptx and sass from binaries
-gpgpu_experimental_lib_support                    0 # Try to extract code from cuda libraries [Broken because of unknown cudaGetExportTable]
-gpgpu_ptx_convert_to_ptxplus                    0 # Convert SASS (native ISA) to ptxplus and run ptxplus
-gpgpu_ptx_force_max_capability                   20 # Force maximum compute capability
-gpgpu_ptx_inst_debug_to_file                    0 # Dump executed instructions' debug information to file
-gpgpu_ptx_inst_debug_file       inst_debug.txt # Executed instructions' debug output file
-gpgpu_ptx_inst_debug_thread_uid                    1 # Thread UID for executed instructions' debug output
-gpgpu_simd_model                       1 # 1 = post-dominator
-gpgpu_shader_core_pipeline              1536:32 # shader core pipeline config, i.e., {<nthread>:<warpsize>}
-gpgpu_tex_cache:l1  4:128:24,L:R:m:N,F:128:4,128:2 # per-shader L1 texture cache  (READ-ONLY) config  {<nsets>:<bsize>:<assoc>,<rep>:<wr>:<alloc>:<wr_alloc>,<mshr>:<N>:<merge>,<mq>:<rf>}
-gpgpu_const_cache:l1 64:64:2,L:R:f:N,A:2:32,4 # per-shader L1 constant memory cache  (READ-ONLY) config  {<nsets>:<bsize>:<assoc>,<rep>:<wr>:<alloc>:<wr_alloc>,<mshr>:<N>:<merge>,<mq>} 
-gpgpu_cache:il1     4:128:4,L:R:f:N,A:2:32,4 # shader L1 instruction cache config  {<nsets>:<bsize>:<assoc>,<rep>:<wr>:<alloc>:<wr_alloc>,<mshr>:<N>:<merge>,<mq>} 
-gpgpu_cache:dl1     32:128:4,L:L:m:N,A:32:8,8 # per-shader L1 data cache config  {<nsets>:<bsize>:<assoc>,<rep>:<wr>:<alloc>:<wr_alloc>,<mshr>:<N>:<merge>,<mq> | none}
-gpgpu_perfect_mem                      0 # enable perfect memory mode (no cache miss)
-n_regfile_gating_group                    4 # group of lanes that should be read/written together)
-gpgpu_clock_gated_reg_file                    0 # enable clock gated reg file for power calculations
-gpgpu_clock_gated_lanes                    0 # enable clock gated lanes for power calculations
-gpgpu_shader_registers                32768 # Number of registers per shader core. Limits number of concurrent CTAs. (default 8192)
-gpgpu_shader_cta                       8 # Maximum number of concurrent CTAs in shader (default 8)
-gpgpu_n_clusters                      14 # number of processing clusters
-gpgpu_n_cores_per_cluster                    1 # number of simd cores per cluster
-gpgpu_n_cluster_ejection_buffer_size                    8 # number of packets in ejection buffer
-gpgpu_n_ldst_response_buffer_size                    2 # number of response packets in ld/st unit ejection buffer
-gpgpu_shmem_size                   16384 # Size of shared memory per shader core (default 16kB)
-gpgpu_shmem_num_banks                   32 # Number of banks in the shared memory in each shader core (default 16)
-gpgpu_shmem_limited_broadcast                    0 # Limit shared memory to do one broadcast per cycle (default on)
-gpgpu_shmem_warp_parts                    1 # Number of portions a warp is divided into for shared memory bank conflict check 
-gpgpu_warpdistro_shader                   -1 # Specify which shader core to collect the warp size distribution from
-gpgpu_warp_issue_shader                    0 # Specify which shader core to collect the warp issue distribution from
-gpgpu_local_mem_map                    1 # Mapping from local memory space address to simulated GPU physical address space (default = enabled)
-gpgpu_num_reg_banks                   16 # Number of register banks (default = 8)
-gpgpu_reg_bank_use_warp_id                    0 # Use warp ID in mapping registers to banks (default = off)
-gpgpu_operand_collector_num_units_sp                    6 # number of collector units (default = 4)
-gpgpu_operand_collector_num_units_sfu                    8 # number of collector units (default = 4)
-gpgpu_operand_collector_num_units_mem                    2 # number of collector units (default = 2)
-gpgpu_operand_collector_num_units_gen                    0 # number of collector units (default = 0)
-gpgpu_operand_collector_num_in_ports_sp                    2 # number of collector unit in ports (default = 1)
-gpgpu_operand_collector_num_in_ports_sfu                    1 # number of collector unit in ports (default = 1)
-gpgpu_operand_collector_num_in_ports_mem                    1 # number of collector unit in ports (default = 1)
-gpgpu_operand_collector_num_in_ports_gen                    0 # number of collector unit in ports (default = 0)
-gpgpu_operand_collector_num_out_ports_sp                    2 # number of collector unit in ports (default = 1)
-gpgpu_operand_collector_num_out_ports_sfu                    1 # number of collector unit in ports (default = 1)
-gpgpu_operand_collector_num_out_ports_mem                    1 # number of collector unit in ports (default = 1)
-gpgpu_operand_collector_num_out_ports_gen                    0 # number of collector unit in ports (default = 0)
-gpgpu_coalesce_arch                   13 # Coalescing arch (default = 13, anything else is off for now)
-gpgpu_num_sched_per_core                    2 # Number of warp schedulers per core
-gpgpu_max_insn_issue_per_warp                    1 # Max number of instructions that can be issued per warp in one cycle by scheduler
-gpgpu_simt_core_sim_order                    1 # Select the simulation order of cores in a cluster (0=Fix, 1=Round-Robin)
-gpgpu_pipeline_widths        2,1,1,2,1,1,2 # Pipeline widths ID_OC_SP,ID_OC_SFU,ID_OC_MEM,OC_EX_SP,OC_EX_SFU,OC_EX_MEM,EX_WB
-gpgpu_num_sp_units                     2 # Number of SP units (default=1)
-gpgpu_num_sfu_units                    1 # Number of SF units (default=1)
-gpgpu_num_mem_units                    1 # Number if ldst units (default=1) WARNING: not hooked up to anything
-gpgpu_scheduler                      lrr # Scheduler configuration: < lrr | gto | two_level_active > If two_level_active:<num_active_warps>:<inner_prioritization>:<outer_prioritization>For complete list of prioritization values see shader.h enum scheduler_prioritization_typeDefault: gto
-gpgpu_dram_scheduler                    1 # 0 = fifo, 1 = FR-FCFS (defaul)
-gpgpu_dram_partition_queues              8:8:8:8 # i2$:$2d:d2$:$2i
-l2_ideal                               0 # Use a ideal L2 cache that always hit
-gpgpu_cache:dl2     64:128:16,L:B:m:W,A:32:4,4 # unified banked L2 data cache config  {<nsets>:<bsize>:<assoc>,<rep>:<wr>:<alloc>:<wr_alloc>,<mshr>:<N>:<merge>,<mq>}
-gpgpu_cache:dl2_texture_only                    0 # L2 cache used for texture only
-gpgpu_n_mem                            5 # number of memory modules (e.g. memory controllers) in gpu
-gpgpu_n_mem_per_ctrlr                    2 # number of memory chips per memory controller
-gpgpu_memlatency_stat                   14 # track and display latency statistics 0x2 enables MC, 0x4 enables queue logs
-gpgpu_frfcfs_dram_sched_queue_size                   16 # 0 = unlimited (default); # entries per chip
-gpgpu_dram_return_queue_size                    0 # 0 = unlimited (default); # entries per chip
-gpgpu_dram_buswidth                    4 # default = 4 bytes (8 bytes per cycle at DDR)
-gpgpu_dram_burst_length                    8 # Burst length of each DRAM request (default = 4 data bus cycle)
-dram_data_command_freq_ratio                    4 # Frequency ratio between DRAM data bus and command bus (default = 2 times, i.e. DDR)
-gpgpu_dram_timing_opt nbk=16:CCD=2:RRD=6:RCD=12:RAS=28:RP=12:RC=40: CL=12:WL=4:CDLR=5:WR=12:nbkgrp=4:CCDL=3:RTPL=2 # DRAM timing parameters = {nbk:tCCD:tRRD:tRCD:tRAS:tRP:tRC:CL:WL:tCDLR:tWR:nbkgrp:tCCDL:tRTPL}
-rop_latency                          120 # ROP queue latency (default 85)
-dram_latency                         100 # DRAM latency (default 30)
-gpgpu_mem_addr_mapping dramid@8;00000000.00000000.00000000.00000000.0000RRRR.RRRRRRRR.BBBBCCCC.CCSSSSSS # mapping memory address to dram model {dramid@<start bit>;<memory address map>}
-gpgpu_mem_addr_test                    0 # run sweep test to check address mapping for aliased address
-gpgpu_mem_address_mask                    1 # 0 = old addressing mask, 1 = new addressing mask, 2 = new add. mask + flipped bank sel and chip sel bits
-gpuwattch_xml_file         gpuwattch.xml # GPUWattch XML file
-power_simulation_enabled                    1 # Turn on power simulator (1=On, 0=Off)
-power_per_cycle_dump                    0 # Dump detailed power output each cycle
-power_trace_enabled                    1 # produce a file for the power trace (1=On, 0=Off)
-power_trace_zlevel                     6 # Compression level of the power trace output log (0=no comp, 9=highest)
-steady_power_levels_enabled                    0 # produce a file for the steady power levels (1=On, 0=Off)
-steady_state_definition                  8:4 # allowed deviation:number of samples
-gpgpu_max_cycle                        0 # terminates gpu simulation early (0 = no limit)
-gpgpu_max_insn                         0 # terminates gpu simulation early (0 = no limit)
-gpgpu_max_cta                          0 # terminates gpu simulation early (0 = no limit)
-gpgpu_runtime_stat                   500 # display runtime statistics such as dram utilization {<freq>:<flag>}
-gpgpu_flush_l1_cache                    0 # Flush L1 cache at the end of each kernel call
-gpgpu_flush_l2_cache                    0 # Flush L2 cache at the end of each kernel call
-gpgpu_deadlock_detect                    1 # Stop the simulation at deadlock (1=on (default), 0=off)
-gpgpu_ptx_instruction_classification                    0 # if enabled will classify ptx instruction types per kernel (Max 255 kernels now)
-gpgpu_ptx_sim_mode                     0 # Select between Performance (default) or Functional simulation (1)
-gpgpu_clock_domains 600.0:1200.0:600.0:750.0 # Clock Domain Frequencies in MhZ {<Core Clock>:<ICNT Clock>:<L2 Clock>:<DRAM Clock>}
-gpgpu_max_concurrent_kernel                    8 # maximum kernels that can run concurrently on GPU
-gpgpu_cflog_interval                    0 # Interval between each snapshot in control flow logger
-visualizer_enabled                     0 # Turn on visualizer output (1=On, 0=Off)
-visualizer_outputfile                 NULL # Specifies the output log file for visualizer
-visualizer_zlevel                      6 # Compression level of the visualizer output log (0=no comp, 9=highest)
-trace_enabled                          0 # Turn on traces
-trace_components                    none # comma seperated list of traces to enable. Complete list found in trace_streams.tup. Default none
-trace_sampling_core                    0 # The core which is printed using CORE_DPRINTF. Default 0
-enable_ptx_file_line_stats                    1 # Turn on PTX source line statistic profiling. (1 = On)
-ptx_line_stats_filename gpgpu_inst_stats.txt # Output file for PTX source line statistics.
-save_embedded_ptx                      0 # saves ptx files embedded in binary as <n>.ptx
-keep                                   0 # keep intermediate files created by GPGPU-Sim when interfacing with external programs
-gpgpu_ptx_save_converted_ptxplus                    0 # Saved converted ptxplus to a file
-ptx_opcode_latency_int         4,13,4,5,145 # Opcode latencies for integers <ADD,MAX,MUL,MAD,DIV>Default 1,1,19,25,145
-ptx_opcode_latency_fp          4,13,4,5,39 # Opcode latencies for single precision floating points <ADD,MAX,MUL,MAD,DIV>Default 1,1,1,1,30
-ptx_opcode_latency_dp         8,19,8,8,330 # Opcode latencies for double precision floating points <ADD,MAX,MUL,MAD,DIV>Default 8,8,8,8,335
-ptx_opcode_initiation_int            1,2,2,1,8 # Opcode initiation intervals for integers <ADD,MAX,MUL,MAD,DIV>Default 1,1,4,4,32
-ptx_opcode_initiation_fp            1,2,1,1,4 # Opcode initiation intervals for single precision floating points <ADD,MAX,MUL,MAD,DIV>Default8aa4964d0166c18cb073a458b70fd703  /tmp/tmp.tIkB3YQIDf/cutcp__SIZE1_1
 1,1,1,1,5
-ptx_opcode_initiation_dp         8,16,8,8,130 # Opcode initiation intervals for double precision floating points <ADD,MAX,MUL,MAD,DIV>Default 8,8,8,8,130
DRAM Timing Options:
nbk                                    16 # number of banks
CCD                                     2 # column to column delay
RRD                                     6 # minimal delay between activation of rows in different banks
RCD                                    12 # row to column delay
RAS                                    28 # time needed to activate row
RP                                     12 # time needed to precharge (deactivate) row
RC                                     40 # row cycle time
CDLR                                    5 # switching from write to read (changes tWTR)
WR                                     12 # last data-in to row precharge
CL                                     12 # CAS latency
WL                                      4 # Write latency
nbkgrp                                  4 # number of bank groups
CCDL                                    3 # column to column delay between accesses to different bank groups
RTPL                                    2 # read to precharge delay between accesses to different bank groups
addr_dec_mask[CHIP]  = 0000000000000000 	high:64 low:0
addr_dec_mask[BK]    = 000000000000f000 	high:16 low:12
addr_dec_mask[ROW]   = 000000000fff0000 	high:28 low:16
addr_dec_mask[COL]   = 0000000000000fff 	high:12 low:0
addr_dec_mask[BURST] = 000000000000003f 	high:6 low:0
*** Initializing Memory Statistics ***
self exe links to: /tmp/tmp.tIkB3YQIDf/cutcp__SIZE1_1
Running md5sum using "md5sum /tmp/tmp.tIkB3YQIDf/cutcp__SIZE1_1 "
Running cuobjdump using "$CUDA_INSTALL_PATH/bin/cuobjdump -ptx -elf -sass /tmp/tmp.tIkB3YQIDf/cutcp__SIZE1_1 > _cuobjdump_complete_output_eaDQYp"
Parsing file _cuobjdump_complete_output_eaDQYp
######### cuobjdump parser ########
## Adding new section PTX
Adding ptx filename: _cuobjdump_1.ptx
Adding arch: sm_13
Adding identifier: benchmarks/cutcp/cutcp.cu
## Adding new section ELF
Adding arch: sm_13
Adding identifier: benchmarks/cutcp/cutcp.cu
Done parsing!!!
Adding _cuobjdump_1.ptx with cubin handle 1
Running: cat _ptx_ptUbjM | sed 's/.version 1.5/.version 1.4/' | sed 's/, texmode_independent//' | sed 's/\(\.extern \.const\[1\] .b8 \w\+\)\[\]/\1\[1\]/' | sed 's/const\[.\]/const\[0\]/g' > _ptx2_nkpyD8
GPGPU-Sim PTX registering constant NbrListLen (4 bytes) to name mapping
GPGPU-Sim PTX registering constant NbrList (15972 bytes) to name mapping
read 96603 atoms from file '/home/cnugteren/software/parboil-2.5/datasets/cutcp/large/input/watbox.sl100.pqr'
extent of domain is:
  minimum -49.998 -49.997 -49.996
  maximum 50 49.99 49.971
padding domain by 0.5 Angstroms
domain lengths are 100.998 by 100.987 by 100.967

Invoking CUDA kernel on 2 region planes...
  computing plane 0
kernel '_Z29cuda_cutoff_potential_latticeiiP6float4fffPfi' transfer to GPU hardware scheduler
kernel_name = _Z29cuda_cutoff_potential_latticeiiP6float4fffPfi 
kernel_launch_uid = 1 
gpu_sim_cycle = 18325137
gpu_sim_insn = 12113348856
gpu_ipc =     661.0237
gpu_tot_sim_cycle = 18325137
gpu_tot_sim_insn = 12113348856
gpu_tot_ipc =     661.0237
gpu_tot_issued_cta = 0
gpu_stall_dramfull = 17271
gpu_stall_icnt2sh    = 49085
gpu_total_sim_rate=404533
Cache L1D_000:	Size = 16384 B (32 Set x 4-way x 128 byte line)
		Access = 129980, Miss = 58179 (0.448), PendingHit = 1048 (0.00806)
Cache L1D_001:	Size = 16384 B (32 Set x 4-way x 128 byte line)
		Access = 128640, Miss = 59490 (0.462), PendingHit = 468 (0.00364)
Cache L1D_002:	Size = 16384 B (32 Set x 4-way x 128 byte line)
		Access = 129310, Miss = 59399 (0.459), PendingHit = 435 (0.00336)
Cache L1D_003:	Size = 16384 B (32 Set x 4-way x 128 byte line)
		Access = 128640, Miss = 60709 (0.472), PendingHit = 530 (0.00412)
Cache L1D_004:	Size = 16384 B (32 Set x 4-way x 128 byte line)
		Access = 129980, Miss = 60269 (0.464), PendingHit = 114 (0.000877)
Cache L1D_005:	Size = 16384 B (32 Set x 4-way x 128 byte line)
		Access = 129980, Miss = 59039 (0.454), PendingHit = 445 (0.00342)
Cache L1D_006:	Size = 16384 B (32 Set x 4-way x 128 byte line)
		Access = 129310, Miss = 59445 (0.46), PendingHit = 641 (0.00496)
Cache L1D_007:	Size = 16384 B (32 Set x 4-way x 128 byte line)
		Access = 129310, Miss = 59644 (0.461), PendingHit = 471 (0.00364)
Cache L1D_008:	Size = 16384 B (32 Set x 4-way x 128 byte line)
		Access = 129310, Miss = 62110 (0.48), PendingHit = 117 (0.000905)
Cache L1D_009:	Size = 16384 B (32 Set x 4-way x 128 byte line)
		Access = 129310, Miss = 60729 (0.47), PendingHit = 136 (0.00105)
Cache L1D_010:	Size = 16384 B (32 Set x 4-way x 128 byte line)
		Access = 129980, Miss = 60387 (0.465), PendingHit = 995 (0.00766)
Cache L1D_011:	Size = 16384 B (32 Set x 4-way x 128 byte line)
		Access = 128640, Miss = 54049 (0.42), PendingHit = 1366 (0.0106)
Cache L1D_012:	Size = 16384 B (32 Set x 4-way x 128 byte line)
		Access = 129310, Miss = 57316 (0.443), PendingHit = 987 (0.00763)
Cache L1D_013:	Size = 16384 B (32 Set x 4-way x 128 byte line)
		Access = 129980, Miss = 60548 (0.466), PendingHit = 235 (0.00181)
total_dl1_misses=831313
total_dl1_accesses=1811680
total_dl1_miss_rate= 0.458863
Shader 0 dynamic_warp_id issue ditsribution:
dynamic_warp_id:
0, 1, 2, 3, 4, 5, 6, 7, 8, 9, 10, 11, 12, 13, 14, 15, 16, 17, 18, 19, 20, 21, 22, 23, 24, 25, 26, 27, 28, 29, 30, 31, 32, 33, 34, 35, 36, 37, 38, 39, 40, 41, 42, 43, 44, 45, 46, 47, 48, 49, 50, 51, 52, 53, 54, 55, 56, 57, 58, 59, 60, 61, 62, 63, 64, 65, 66, 67, 68, 69, 70, 71, 72, 73, 74, 75, 76, 77, 78, 79, 80, 81, 82, 83, 84, 85, 86, 87, 88, 89, 90, 91, 92, 93, 94, 95, 96, 97, 98, 99, 100, 101, 102, 103, 104, 105, 106, 107, 108, 109, 110, 111, 112, 113, 114, 115, 116, 117, 118, 119, 120, 121, 122, 123, 124, 125, 126, 127, 128, 129, 130, 131, 132, 133, 134, 135, 136, 137, 138, 139, 140, 141, 142, 143, 144, 145, 146, 147, 148, 149, 150, 151, 152, 153, 154, 155, 156, 157, 158, 159, 160, 161, 162, 163, 164, 165, 166, 167, 168, 169, 170, 171, 172, 173, 174, 175, 176, 177, 178, 179, 180, 181, 182, 183, 184, 185, 186, 187, 188, 189, 190, 191, 192, 193, 194, 195, 196, 197, 198, 199, 200, 201, 202, 203, 204, 205, 206, 207, 208, 209, 210, 211, 212, 213, 214, 215, 216, 217, 218, 219, 220, 221, 222, 223, 224, 225, 226, 227, 228, 229, 230, 231, 232, 233, 234, 235, 236, 237, 238, 239, 240, 241, 242, 243, 244, 245, 246, 247, 248, 249, 250, 251, 252, 253, 254, 255, 256, 257, 258, 259, 260, 261, 262, 263, 264, 265, 266, 267, 268, 269, 270, 271, 272, 273, 274, 275, 276, 277, 278, 279, 280, 281, 282, 283, 284, 285, 286, 287, 288, 289, 290, 291, 292, 293, 294, 295, 296, 297, 298, 299, 300, 301, 302, 303, 304, 305, 306, 307, 308, 309, 310, 311, 312, 313, 314, 315, 316, 317, 318, 319, 320, 321, 322, 323, 324, 325, 326, 327, 328, 329, 330, 331, 332, 333, 334, 335, 336, 337, 338, 339, 340, 341, 342, 343, 344, 345, 346, 347, 348, 349, 350, 351, 352, 353, 354, 355, 356, 357, 358, 359, 360, 361, 362, 363, 364, 365, 366, 367, 368, 369, 370, 371, 372, 373, 374, 375, 376, 377, 378, 379, 380, 381, 382, 383, 384, 385, 386, 387, 388, 389, 390, 391, 392, 393, 394, 395, 396, 397, 398, 399, 400, 401, 402, 403, 404, 405, 406, 407, 408, 409, 410, 411, 412, 413, 414, 415, 416, 417, 418, 419, 420, 421, 422, 423, 424, 425, 426, 427, 428, 429, 430, 431, 432, 433, 434, 435, 436, 437, 438, 439, 440, 441, 442, 443, 444, 445, 446, 447, 448, 449, 450, 451, 452, 453, 454, 455, 456, 457, 458, 459, 460, 461, 462, 463, 464, 465, 466, 467, 468, 469, 470, 471, 472, 473, 474, 475, 476, 477, 478, 479, 480, 481, 482, 483, 484, 485, 486, 487, 488, 489, 490, 491, 492, 493, 494, 495, 496, 497, 498, 499, 500, 501, 502, 503, 504, 505, 506, 507, 508, 509, 510, 511, 512, 513, 514, 515, 516, 517, 518, 519, 520, 521, 522, 523, 524, 525, 526, 527, 528, 529, 530, 531, 532, 533, 534, 535, 536, 537, 538, 539, 540, 541, 542, 543, 544, 545, 546, 547, 548, 549, 550, 551, 552, 553, 554, 555, 556, 557, 558, 559, 560, 561, 562, 563, 564, 565, 566, 567, 568, 569, 570, 571, 572, 573, 574, 575, 576, 577, 578, 579, 580, 581, 582, 583, 584, 585, 586, 587, 588, 589, 590, 591, 592, 593, 594, 595, 596, 597, 598, 599, 600, 601, 602, 603, 604, 605, 606, 607, 608, 609, 610, 611, 612, 613, 614, 615, 616, 617, 618, 619, 620, 621, 622, 623, 624, 625, 626, 627, 628, 629, 630, 631, 632, 633, 634, 635, 636, 637, 638, 639, 640, 641, 642, 643, 644, 645, 646, 647, 648, 649, 650, 651, 652, 653, 654, 655, 656, 657, 658, 659, 660, 661, 662, 663, 664, 665, 666, 667, 668, 669, 670, 671, 672, 673, 674, 675, 676, 677, 678, 679, 680, 681, 682, 683, 684, 685, 686, 687, 688, 689, 690, 691, 692, 693, 694, 695, 696, 697, 698, 699, 700, 701, 702, 703, 704, 705, 706, 707, 708, 709, 710, 711, 712, 713, 714, 715, 716, 717, 718, 719, 720, 721, 722, 723, 724, 725, 726, 727, 728, 729, 730, 731, 732, 733, 734, 735, 736, 737, 738, 739, 740, 741, 742, 743, 744, 745, 746, 747, 748, 749, 750, 751, 752, 753, 754, 755, 756, 757, 758, 759, 760, 761, 762, 763, 764, 765, 766, 767, 768, 769, 770, 771, 772, 773, 774, 775, 
distro:
26494, 27007, 26647, 27232, 27377, 27926, 27521, 28133, 26045, 26432, 26108, 26594, 26537, 26906, 26654, 27077, 27194, 27725, 27374, 27878, 27349, 27997, 27475, 28069, 20774, 21026, 20864, 21107, 28768, 29182, 28966, 29317, 31901, 32243, 32072, 32423, 31712, 32243, 31847, 32378, 31553, 32039, 31805, 32210, 32532, 32982, 32694, 33090, 31278, 31584, 31440, 31818, 25734, 26031, 25851, 26211, 23404, 23584, 23530, 23719, 36836, 37070, 37061, 37295, 37713, 38037, 38010, 38298, 37298, 37595, 37442, 37955, 38321, 38699, 38528, 38933, 36498, 36687, 36705, 36948, 36031, 36265, 36274, 36499, 31525, 31552, 31750, 31705, 41093, 41084, 41273, 41336, 42257, 42239, 42464, 42437, 43231, 43159, 43519, 43411, 43105, 43123, 43312, 43384, 41531, 41540, 41756, 41720, 37763, 38042, 38042, 38204, 28081, 28153, 28225, 28288, 26336, 26291, 26462, 26426, 43029, 43047, 43281, 43290, 44404, 44395, 44674, 44647, 42709, 42772, 42907, 42970, 43620, 43566, 43836, 43809, 42260, 42404, 42512, 42656, 41698, 41707, 41932, 41959, 42580, 42598, 42841, 42895, 42782, 42863, 43106, 43133, 43019, 43073, 43325, 43298, 43116, 42999, 43323, 43332, 44520, 44709, 44799, 44880, 43336, 43408, 43606, 43633, 27833, 27878, 27995, 28004, 22560, 22578, 22668, 22704, 22821, 22785, 22884, 22875, 42824, 42860, 43175, 43157, 43427, 43400, 43661, 43562, 43411, 43384, 43672, 43618, 42403, 42466, 42628, 42628, 43537, 43420, 43789, 43690, 43931, 43949, 44129, 44183, 31549, 31603, 31720, 31783, 32737, 32746, 32944, 32863, 43900, 43747, 44053, 43990, 44370, 44253, 44667, 44505, 43605, 43479, 43920, 43767, 43953, 43980, 44232, 44214, 38454, 38553, 38643, 38796, 39435, 39390, 39741, 39660, 27060, 27060, 27249, 27186, 44142, 44286, 44385, 44529, 42468, 42423, 42765, 42657, 43679, 43652, 43967, 43877, 43419, 43302, 43617, 43563, 43824, 43851, 44067, 44103, 43525, 43723, 43732, 43984, 42523, 42478, 42748, 42730, 43522, 43288, 43747, 43585, 43520, 43439, 43817, 43682, 44132, 44240, 44348, 44348, 43907, 43916, 44159, 44150, 44333, 44297, 44531, 44531, 28565, 28565, 28718, 28691, 22448, 22448, 22601, 22610, 32712, 32721, 32883, 32901, 42777, 42840, 43065, 43056, 43710, 43674, 43980, 43863, 42209, 42182, 42461, 42434, 42425, 42353, 42695, 42686, 43465, 43501, 43663, 43807, 38180, 38207, 38414, 38405, 26988, 26997, 27123, 27177, 42987, 43014, 43338, 43275, 43901, 43874, 44162, 44099, 43890, 43899, 44097, 44079, 42984, 43047, 43245, 43191, 42310, 42247, 42589, 42490, 43837, 43810, 44062, 44053, 23093, 23048, 23237, 23183, 31903, 31858, 32101, 32029, 43317, 43299, 43596, 43659, 43510, 43492, 43834, 43807, 43295, 43088, 43502, 43376, 43818, 43845, 44088, 44079, 42619, 42565, 42889, 42790, 38817, 38817, 39042, 39105, 37818, 37809, 38025, 38070, 38259, 38313, 38439, 38520, 44182, 44281, 44461, 44479, 42800, 42764, 43034, 42962, 41611, 41476, 41926, 41746, 44091, 44073, 44307, 44244, 33442, 33451, 33667, 33658, 33847, 33838, 34009, 34036, 39179, 39269, 39467, 39476, 43271, 43289, 43559, 43532, 41656, 41611, 41917, 41890, 41587, 41668, 41911, 41956, 43530, 43557, 43782, 43782, 44619, 44412, 44862, 44718, 34308, 34290, 34470, 34443, 38799, 38898, 38970, 38988, 42731, 42740, 42911, 42929, 43430, 43340, 43637, 43583, 40790, 40988, 41042, 41240, 41474, 41465, 41744, 41789, 43746, 43656, 43917, 43818, 33519, 33573, 33672, 33744, 28217, 28253, 28289, 28352, 43102, 43219, 43291, 43471, 43309, 43309, 43525, 43534, 43795, 43741, 44020, 44029, 41662, 41653, 41842, 41851, 43194, 43212, 43383, 43455, 43771, 43789, 44104, 44005, 28338, 28401, 28455, 28563, 42848, 42722, 43019, 42911, 42649, 42658, 42919, 42946, 43201, 43057, 43381, 43273, 42472, 42490, 42724, 42697, 43311, 43383, 43527, 43572, 43332, 43161, 43602, 43458, 28480, 28534, 28660, 28660, 26626, 26563, 26752, 26689, 42084, 42066, 42336, 42327, 41844, 41916, 42078, 42096, 42798, 42780, 43023, 43041, 43414, 43549, 43567, 43819, 42094, 42049, 42364, 42292, 41634, 41580, 41859, 41877, 26611, 26611, 26737, 26683, 41724, 41724, 41976, 41985, 41839, 41902, 42073, 42154, 42900, 42954, 43269, 43197, 43384, 43465, 43663, 43690, 43088, 43097, 43313, 43322, 41636, 41690, 41888, 41888, 28647, 28557, 28773, 28701, 22540, 22531, 22603, 22576, 43470, 43542, 43686, 43731, 42748, 42721, 43027, 42973, 42116, 42323, 42431, 42476, 44581, 44491, 44806, 44716, 43656, 43692, 43863, 43917, 42229, 42175, 42427, 42355, 26859, 26859, 26976, 26976, 32782, 32782, 32980, 32998, 42639, 42747, 42936, 42990, 42897, 43023, 43158, 43248, 43811, 43694, 44063, 43919, 44063, 44162, 44342, 44369, 42374, 42347, 42599, 42581, 39295, 39367, 39556, 39637, 22730, 22802, 22820, 22865, 38341, 38161, 38602, 38386, 39600, 39357, 39789, 39519, 39738, 39594, 40026, 39783, 40349, 40169, 40646, 40403, 39298, 39154, 39487, 39379, 38649, 38424, 38865, 38622, 21806, 21572, 21896, 21644, 29946, 29649, 30126, 29856, 33117, 32820, 33297, 33000, 35329, 34897, 35527, 35050, 34289, 33974, 34505, 34172, 35305, 34954, 35521, 35152, 34642, 34201, 34831, 34363, 26857, 26542, 27019, 26641, 18951, 18798, 19014, 18861, 29311, 28825, 29473, 28996, 29379, 28929, 29559, 29100, 29739, 29109, 29919, 29226, 29530, 28999, 29710, 29170, 29215, 28693, 29377, 28855, 29605, 29011, 29731, 29101, 16634, 16382, 16724, 16418, 22936, 22531, 23035, 22594, 22944, 22521, 23079, 22629, 23593, 23098, 23719, 23197, 23972, 23414, 24116, 23540, 24534, 24012, 24651, 24093, 23765, 23126, 23882, 23234, 16469, 16235, 16568, 16289, 14583, 14322, 14601, 14349, 
gpgpu_n_tot_thrd_icount = 12911309440
gpgpu_n_tot_w_icount = 403478420
gpgpu_n_icache_hits = 219780655
gpgpu_n_icache_misses = 2015
gpgpu_n_l1dcache_read_hits = 972379
gpgpu_n_l1dcache_read_misses = 839301
gpgpu_n_l1dcache_write_accesses = 10816
gpgpu_n_l1dcache_wirte_misses = 10816
gpgpu_n_tcache_hits = 0
gpgpu_n_tcache_misses = 0
gpgpu_n_ccache_hits = 18205778
gpgpu_n_ccache_misses = 4034
gpgpu_n_stall_shd_mem = 2090388
gpgpu_n_mem_read_local = 0
gpgpu_n_mem_write_local = 0
gpgpu_n_mem_read_global = 831313
gpgpu_n_mem_write_global = 10816
gpgpu_n_mem_texture = 0
gpgpu_n_mem_const = 924
gpgpu_n_load_insn  = 57973760
gpgpu_n_store_insn = 692224
gpgpu_n_shmem_insn = 1435609022
gpgpu_n_tex_insn = 0
gpgpu_n_const_mem_insn = 87652864
gpgpu_n_param_mem_insn = 987034558
gpgpu_n_shmem_bkconflict = 0
gpgpu_n_cache_bkconflict = 0
gpgpu_n_intrawarp_mshr_merge = 0
gpgpu_n_cmem_portconflict = 283920
gpgpu_stall_shd_mem[c_mem][bk_conf] = 283920
gpgpu_stall_shd_mem[c_mem][mshr_rc] = 0
gpgpu_stall_shd_mem[c_mem][icnt_rc] = 0
gpgpu_stall_shd_mem[t_mem][mshr_rc] = 0
gpgpu_stall_shd_mem[t_mem][icnt_rc] = 0
gpgpu_stall_shd_mem[s_mem][bk_conf] = 903136
gpgpu_stall_shd_mem[gl_mem][bk_conf] = 0
gpgpu_stall_shd_mem[gl_mem][coal_stall] = 903332
gpgpu_stall_shd_mem[g_mem_ld][mshr_rc] = 0
gpgpu_stall_shd_mem[g_mem_ld][icnt_rc] = 0
gpgpu_stall_shd_mem[g_mem_ld][wb_icnt_rc] = 0
gpgpu_stall_shd_mem[g_mem_ld][wb_rsrv_fail] = 0
gpgpu_stall_shd_mem[g_mem_st][mshr_rc] = 0
gpgpu_stall_shd_mem[g_mem_st][icnt_rc] = 0
gpgpu_stall_shd_mem[g_mem_st][wb_icnt_rc] = 0
gpgpu_stall_shd_mem[g_mem_st][wb_rsrv_fail] = 0
gpgpu_stall_shd_mem[l_mem_ld][mshr_rc] = 0
gpgpu_stall_shd_mem[l_mem_ld][icnt_rc] = 0
gpgpu_stall_shd_mem[l_mem_ld][wb_icnt_rc] = 0
gpgpu_stall_shd_mem[l_mem_ld][wb_rsrv_fail] = 0
gpgpu_stall_shd_mem[l_mem_st][mshr_rc] = 0
gpgpu_stall_shd_mem[l_mem_st][icnt_rc] = 0
gpgpu_stall_shd_mem[l_mem_ld][wb_icnt_rc] = 0
gpgpu_stall_shd_mem[l_mem_ld][wb_rsrv_fail] = 0
gpu_reg_bank_conflict_stalls = 0
Warp Occupancy Distribution:
Stall:12226759	W0_Idle:122937	W0_Scoreboard:96179478	W1:1163250	W2:788031	W3:874305	W4:843480	W5:542115	W6:810153	W7:445527	W8:846018	W9:470268	W10:581112	W11:454743	W12:696015	W13:440748	W14:651438	W15:440217	W16:822593	W17:401139	W18:575964	W19:399249	W20:641556	W21:428319	W22:622890	W23:408276	W24:700578	W25:409419	W26:576828	W27:369378	W28:749367	W29:589293	W30:588303	W31:1062855	W32:384084993
maxmrqlatency = 63 
maxdqlatency = 0 
maxmflatency = 514 
averagemflatency = 131 
max_icnt2mem_latency = 338 
max_icnt2sh_latency = 18325136 
mrq_lat_table:12538 	5314 	1221 	3942 	5340 	485 	0 	0 	0 	0 	0 	0 	0 	0 	0 	0 	0 	0 	0 	0 	0 	0 	0 	0 	0 	0 	0 	0 	0 	0 	0 	0 	
dq_lat_table:0 	0 	0 	0 	0 	0 	0 	0 	0 	0 	0 	0 	0 	0 	0 	0 	0 	0 	0 	0 	0 	0 	0 	0 	0 	0 	0 	0 	0 	0 	0 	0 	
mf_lat_table:0 	0 	0 	0 	0 	0 	394451 	442023 	6578 	1 	0 	0 	0 	0 	0 	0 	0 	0 	0 	0 	0 	0 	0 	0 	0 	0 	0 	0 	0 	0 	0 	0 	
icnt2mem_lat_table:141 	829775 	11927 	214 	224 	322 	426 	198 	8 	0 	0 	0 	0 	0 	0 	0 	0 	0 	0 	0 	0 	0 	0 	0 	
icnt2sh_lat_table:0 	401439 	423603 	7176 	19 	0 	0 	0 	0 	0 	0 	0 	0 	0 	0 	0 	0 	168 	168 	352 	656 	1180 	2300 	4692 	
mf_lat_pw_table:1300 	0 	0 	0 	0 	0 	22879 	10800 	39 	0 	0 	0 	0 	0 	0 	0 	0 	0 	0 	0 	0 	0 	0 	0 	0 	0 	0 	0 	0 	0 	0 	0 	
maximum concurrent accesses to same row:
dram[0]:        64        64        64        64        64        64        64        64        64        64        64        64        64        64        64        64 
dram[1]:        64        64        64        64        64        64        64        64        64        64        64        64        64        64        64        64 
dram[2]:        64        64        64        64        64        64        64        64        64        64        64        64        64        64        64        64 
dram[3]:        64        64        64        64        64        64        64        64        64        64        64        64        64        64        64        64 
dram[4]:        64        64        64        64        64        64        64        64        64        64        64        64        64        64        64        64 
maximum service time to same row:
dram[0]:   4593441   4579160   4709808   4574833   4573423   4806819   4698050   4448751   4622267   4660964   4537270   4526022   4653824   4589355   4456024   4575446 
dram[1]:   4593452   4579114   4709803   4574836   4573416   4806824   4698050   4448750   4622265   4660965   4539242   4525944   4653821   4589352   4458221   4575449 
dram[2]:   4593547   4580966   4703272   4577031   4597402   4812872   4696842   4441259   4660216   4690499   4507757   4520872   4657381   4584825   4457009   4578739 
dram[3]:   4585012   4576303   4703288   4571273   4597397   4812854   4703928   4441261   4660217   4690500   4455292   4550866   4657376   4584823   4463317   4578740 
dram[4]:   4575967   4586983   4704963   4563534   4632825   4812713   4713770   4402504   4669082   4686184   3903950   4562231   4653842   4581046   4457273   4595734 
average row accesses per activate:
dram[0]:  7.891304  8.000000  7.183673 10.057143 35.555557 29.090910 17.777779 20.235294 13.538462  9.894737  9.244445  9.043478  9.904762 12.689655 16.000000  8.000000 
dram[1]:  8.619047  8.380953  7.183673  7.652174 35.555557 29.090910 22.857143 18.105263 14.666667  8.545455  9.043478 10.146341  9.674418 11.030303 16.000000  7.822222 
dram[2]:  6.830189  8.186047  8.380953  7.822222 35.555557 29.090910 20.000000 20.352942 13.538462  9.894737  8.320000  9.043478 10.666667  9.282051 17.600000  7.183673 
dram[3]:  8.395349  7.652174  8.380953  8.186047 35.555557 24.615385 22.857143 23.066668 12.571428 10.000000  8.489796  9.904762 10.947369 11.677420 17.600000  7.040000 
dram[4]:  7.058824  8.186047  6.769231  8.333333 29.090910 29.090910 26.666666 20.352942 12.137931  9.268292  8.666667  9.454545  9.244445 10.400000 17.600000  8.186047 
average row locality = 28840/2659 = 10.846183
number of total memory accesses made:
dram[0]:         0         0         0         0         0         0         0         0         0         0         0         0         0         0         0         0 
dram[1]:         0         0         0         0         0         0         0         0         0         0         0         0         0         0         0         0 
dram[2]:         0         0         0         0         0         0         0         0         0         0         0         0         0         0         0         0 
dram[3]:         0         0         0         0         0         0         0         0         0         0         0         0         0         0         0         0 
dram[4]:         0         0         0         0         0         0         0         0         0         0         0         0         0         0         0         0 
total accesses: 0
min_bank_accesses = 0!
min_chip_accesses = 0!
number of total read accesses:
dram[0]:       235       224       224       224       192       192       192       216       224       236       256       256       256       232       224       224 
dram[1]:       234       224       224       224       192       192       192       216       224       236       256       256       256       230       224       224 
dram[2]:       234       224       224       224       192       192       192       218       224       236       256       256       256       228       224       224 
dram[3]:       233       224       224       224       192       192       192       218       224       238       256       256       256       228       224       224 
dram[4]:       232       224       224       222       192       192       192       218       224       238       256       256       256       230       224       224 
total reads: 18024
bank skew: 256/192 = 1.33
chip skew: 3607/3604 = 1.00
number of total write accesses:
dram[0]:       128       128       128       128       128       128       128       128       128       140       160       160       160       136       128       128 
dram[1]:       128       128       128       128       128       128       128       128       128       140       160       160       160       134       128       128 
dram[2]:       128       128       128       128       128       128       128       128       128       140       160       160       160       134       128       128 
dram[3]:       128       128       128       128       128       128       128       128       128       142       160       160       160       134       128       128 
dram[4]:       128       128       128       128       128       128       128       128       128       142       160       160       160       134       128       128 
total reads: 10816
bank skew: 160/128 = 1.25
chip skew: 2164/2162 = 1.00
average mf latency per bank:
dram[0]:       3867      4290      4877      3039      2775      3839      3130      2978      4896      4370      3301      4164      3887      2588      4202      4915
dram[1]:       3863      4316      4861      3025      2818      3854      3109      2981      4927      4351      3308      4185      3863      2603      4196      4910
dram[2]:       3904      4293      4869      3065      2788      3849      3137      2941      4898      4364      3290      4162      3894      2628      4165      4894
dram[3]:       3930      4263      4891      3120      2787      3840      3174      2919      4862      4344      3329      4135      3929      2633      4132      4906
dram[4]:       3917      4257      4881      3119      2758      3851      3151      2922      4870      4343      3311      4150      3915      2611      4144      4920
maximum mf latency per bank:
dram[0]:        444       272       272       272       408       323       272       385       368       272       373       466       270       331       407       272
dram[1]:        432       274       273       274       445       402       272       361       412       272       400       401       273       296       358       273
dram[2]:        273       273       274       270       383       376       271       402       282       273       280       477       280       297       483       274
dram[3]:        376       272       270       272       514       357       273       452       315       270       436       280       272       319       374       280
dram[4]:        309       273       272       273       406       348       273       398       369       273       371       398       273       384       364       276

Number of Memory Banks Accessed per Memory Operation per Warp (from 0):
0	0	0	0	0	0	0	0	0	0	0	0	0	0	0	0	0	0	0	0	0	0	0	0	0	0	0	0	0	0	0	0	0	0	0	0	0	0	0	0	0	0	0	0	0	0	0	0	0	0	0	0	0	0	0	0	0	0	0	0	0	0	0	0	0	0	0	0	0	0	0	0	0	0	0	0	0	0	0	0	
Average # of Memory Banks Accessed per Memory Operation per Warp=-nan

position of mrq chosen
0	0	0	0	0	0	0	0	0	0	0	0	0	0	0	0	

average position of mrq chosen = -nan
gpgpu_l2_write_miss = 0
gpgpu_l2_write_access = 0
gpgpu_l2_read_miss = 0
gpgpu_l2_read_access = 0
Cache L2_bank_000:
MSHR contents

DRAM[0]: 16 bks, busW=4 BL=8 CL=12, tRRD=2 tCCD=6, tRCD=12 tRAS=28 tRP=12 tRC=40
n_cmd=22906421 n_nop=22893851 n_act=522 n_pre=506 n_req=5771 n_rd=7214 n_write=4328 bw_util=0.001008
n_activity=100044 dram_eff=0.2307
bk0: 470a 22903486i bk1: 448a 22903338i bk2: 448a 22903477i bk3: 448a 22903429i bk4: 384a 22903140i bk5: 384a 22903152i bk6: 384a 22903004i bk7: 432a 22903121i bk8: 448a 22902632i bk9: 472a 22902787i bk10: 512a 22902921i bk11: 512a 22903568i bk12: 512a 22902192i bk13: 464a 22901896i bk14: 448a 22901617i bk15: 448a 22889895i 
dram_util_bins: 0 0 0 0 0 0 0 0 0 0
dram_eff_bins: 0 0 0 0 0 0 0 0 0 0
mrqq: max=5 avg=0.00204969
Cache L2_bank_001:
MSHR contents
MSHR: tag=0x80151680, atomic=0 1 entries : 0x2b22d58f2c00 :  mf: uid=239825990, sid10:w09, part=1, addr=0x80151680, load , size=128, unknown  status = IN_PARTITION_DRAM (18325136), 

DRAM[1]: 16 bks, busW=4 BL=8 CL=12, tRRD=2 tCCD=6, tRCD=12 tRAS=28 tRP=12 tRC=40
n_cmd=22906421 n_nop=22893845 n_act=531 n_pre=515 n_req=5766 n_rd=7206 n_write=4324 bw_util=0.001007
n_activity=100203 dram_eff=0.2301
bk0: 468a 22903465i bk1: 448a 22903585i bk2: 448a 22903526i bk3: 448a 22903300i bk4: 384a 22902885i bk5: 384a 22903274i bk6: 384a 22903458i bk7: 432a 22903303i bk8: 448a 22902668i bk9: 472a 22902592i bk10: 512a 22903070i bk11: 512a 22903631i bk12: 512a 22902111i bk13: 458a 22901796i bk14: 448a 22901433i bk15: 448a 22889513i 
dram_util_bins: 0 0 0 0 0 0 0 0 0 0
dram_eff_bins: 0 0 0 0 0 0 0 0 0 0
mrqq: max=6 avg=0.00202472
Cache L2_bank_002:
MSHR contents
MSHR: tag=0x80151780, atomic=0 1 entries : 0x2b22d58f2960 :  mf: uid=239825989, sid10:w11, part=2, addr=0x80151780, load , size=128, unknown  status = IN_PARTITION_DRAM (18325136), 

DRAM[2]: 16 bks, busW=4 BL=8 CL=12, tRRD=2 tCCD=6, tRCD=12 tRAS=28 tRP=12 tRC=40
n_cmd=22906421 n_nop=22893819 n_act=544 n_pre=528 n_req=5766 n_rd=7206 n_write=4324 bw_util=0.001007
n_activity=100679 dram_eff=0.229
bk0: 468a 22903614i bk1: 448a 22903400i bk2: 448a 22903565i bk3: 448a 22903473i bk4: 384a 22903241i bk5: 384a 22903244i bk6: 384a 22903259i bk7: 436a 22903218i bk8: 448a 22902361i bk9: 472a 22902509i bk10: 512a 22902755i bk11: 512a 22903666i bk12: 512a 22901978i bk13: 454a 22901937i bk14: 448a 22901588i bk15: 448a 22889495i 
dram_util_bins: 0 0 0 0 0 0 0 0 0 0
dram_eff_bins: 0 0 0 0 0 0 0 0 0 0
mrqq: max=6 avg=0.0020042
Cache L2_bank_003:
MSHR contents

DRAM[3]: 16 bks, busW=4 BL=8 CL=12, tRRD=2 tCCD=6, tRCD=12 tRAS=28 tRP=12 tRC=40
n_cmd=22906421 n_nop=22893855 n_act=522 n_pre=506 n_req=5769 n_rd=7210 n_write=4328 bw_util=0.001007
n_activity=100054 dram_eff=0.2306
bk0: 466a 22903408i bk1: 448a 22903447i bk2: 448a 22903282i bk3: 448a 22903321i bk4: 384a 22903187i bk5: 384a 22903275i bk6: 384a 22903367i bk7: 436a 22903451i bk8: 448a 22902692i bk9: 476a 22902770i bk10: 512a 22902702i bk11: 512a 22903393i bk12: 512a 22901850i bk13: 456a 22901872i bk14: 448a 22901601i bk15: 448a 22890085i 
dram_util_bins: 0 0 0 0 0 0 0 0 0 0
dram_eff_bins: 0 0 0 0 0 0 0 0 0 0
mrqq: max=5 avg=0.00202114
Cache L2_bank_004:
MSHR contents

DRAM[4]: 16 bks, busW=4 BL=8 CL=12, tRRD=2 tCCD=6, tRCD=12 tRAS=28 tRP=12 tRC=40
n_cmd=22906421 n_nop=22893811 n_act=545 n_pre=529 n_req=5768 n_rd=7208 n_write=4328 bw_util=0.001007
n_activity=100947 dram_eff=0.2286
bk0: 464a 22903236i bk1: 448a 22903249i bk2: 448a 22903600i bk3: 444a 22903787i bk4: 384a 22903329i bk5: 384a 22903181i bk6: 384a 22903181i bk7: 436a 22903406i bk8: 448a 22902740i bk9: 476a 22902778i bk10: 512a 22902861i bk11: 512a 22903676i bk12: 512a 22902008i bk13: 460a 22901751i bk14: 448a 22901378i bk15: 448a 22889138i 
dram_util_bins: 0 0 0 0 0 0 0 0 0 0
dram_eff_bins: 0 0 0 0 0 0 0 0 0 0
mrqq: max=5 avg=0.00200525
Cache L2_bank_000:	Size = 131072 B (64 Set x 16-way x 128 byte line)
		Access = 168622, Miss = 3607 (0.0214), PendingHit = 396 (0.00235)
Cache L2_bank_001:	Size = 131072 B (64 Set x 16-way x 128 byte line)
		Access = 168616, Miss = 3604 (0.0214), PendingHit = 391 (0.00232)
Cache L2_bank_002:	Size = 131072 B (64 Set x 16-way x 128 byte line)
		Access = 168611, Miss = 3604 (0.0214), PendingHit = 411 (0.00244)
Cache L2_bank_003:	Size = 131072 B (64 Set x 16-way x 128 byte line)
		Access = 168723, Miss = 3605 (0.0214), PendingHit = 445 (0.00264)
Cache L2_bank_004:	Size = 131072 B (64 Set x 16-way x 128 byte line)
		Access = 168663, Miss = 3604 (0.0214), PendingHit = 399 (0.00237)
L2 Cache Total Miss Rate = 0.021

icnt_total_pkts_mem_to_simt=4171063
icnt_total_pkts_simt_to_mem=886499

LD_mem_lat_dist  0 0 0 0 0 0 0 0 0 0 0 0 0 0 0 0 0 0 0 0 0 0 0 0 0 0 0
ST_mem_lat_dist  0 0 0 0 0 0 0 0 0 0 0 0 0 0 0 0 0 0 0 0 0 0 0 0 0 0 0
Traffic 0 Stat
%=================================
% Average latency = 1.10244
% Accepted packets = 0 at node 0 (avg = 0.00105165)
lat(1) = 1.10244;
thru(1,:) = [ 0 0 0 0 0 0 0 0 0 0 0 0 0 0 0.00483702 0.00483664 0.0048365 0.00483977 0.00483814 0 0 0 0 ];
% latency change    = 1
% throughput change = 1
Traffic 1 Stat
%=================================
% Average latency = 6.83597
% Accepted packets = 0 at node 14 (avg = 0.00494814)
lat(2) = 6.83597;
thru(2,:) = [ 0.0079654 0.00814403 0.00813173 0.00831033 0.00825053 0.00808272 0.008138 0.00816515 0.00850157 0.00831317 0.00826662 0.00740175 0.00784755 0.00828859 0 0 0 0 0 0 0 0 0 ];
% latency change    = 0.838729
% throughput change = 0.787464
----------------------------Interconnect-DETAILS---------------------------------=======Traffic[0]class0 ======
Traffic[0]class0Overall average latency = 1.10244 (1 samples)
Traffic[0]class0Overall average accepted rate = 0.00105165 (1 samples)
Traffic[0]class0Overall min accepted rate = 0 (1 samples)
traffic_manager/latency_stat_0_freq = [ 0 826559 4879 286 157 7447 1154 411 1543 388 103 9 2 10 1 12 0 15 1 11 0 5 0 5 0 4 0 10 0 3 0 4 0 2 0 5 0 1 0 2 1 1 1 2 0 2 0 1 1 1 0 5 0 4 0 4 0 4 1 7 1 5 0 1 1 2 0 2 0 4 1 1 2 1 0 2 1 1 1 3 0 3 0 6 0 1 1 2 2 5 2 1 1 7 1 4 1 2 1 3 1 2 0 1 0 0 0 2 0 2 0 3 0 1 0 1 0 3 0 4 0 2 0 1 0 0 0 0 0 0 0 0 0 0 0 2 0 0 0 1 0 1 1 3 0 2 0 0 0 1 1 2 0 0 0 0 0 0 0 0 1 1 0 1 0 0 0 0 0 2 0 2 0 1 0 4 1 4 1 4 0 2 0 4 0 1 0 2 0 3 0 1 0 0 0 2 0 0 0 0 0 0 0 1 0 0 0 0 0 1 0 1 0 1 0 0 0 0 0 0 0 1 0 0 0 0 0 0 0 1 0 0 0 1 0 2 0 1 0 0 0 0 0 0 0 0 0 0 0 0 0 0 0 0 0 2 0 0 0 0 0 0 0 0 0 2 0 0 0 0 0 0 0 0 0 0 0 0 0 0 0 0 0 0 0 0 0 1 0 0 0 0 0 0 0 0 0 0 0 0 0 1 0 0 0 0 0 0 0 2 0 2 0 0 0 0 0 0 0 0 0 0 0 0 0 0 0 0 0 0 0 0 0 0 0 1 0 0 0 1 0 0 0 0 0 0 0 0 0 0 0 0 0 0 0 0 0 0 0 2 0 0 0 0 0 0 0 0 0 0 0 0 0 0 0 0 0 0 0 0 0 0 0 0 0 0 0 0 0 0 0 0 0 0 0 0 0 0 0 0 0 0 0 0 0 1 0 0 0 0 0 0 0 0 0 0 0 0 0 0 0 0 0 0 0 0 0 0 0 0 0 0 0 0 0 0 0 0 0 0 0 0 0 0 0 0 0 0 0 0 0 0 0 0 0 0 0 0 0 0 0 0 0 0 0 0 0 0 0 0 0 0 0 0 0 0 0 0 0 0 0 0 0 0 0 0 0 0 0 0 0 0 0 0 0 0 0 0 0 0 0 0 0 0 0 0 0 0 0 0 0 0 0 0 0 0 0 0 0 0 0 0 0 0 0 0 0 0 0 0 0 0 0 0 0 0 0 0 0 0 0 0 0 0 0 0 0 0 0 0 0 0 0 0 0 0 0 0 0 0 0 0 0 0 0 0 0 0 0 0 0 0 0 0 0 0 0 0 0 0 0 0 0 0 0 0 0 0 0 0 0 0 0 0 0 0 0 0 0 0 0 0 0 0 0 0 0 0 0 0 0 0 0 0 0 0 0 0 0 0 0 0 0 0 0 0 0 0 0 0 0 0 0 0 0 0 0 0 0 0 0 0 0 0 0 0 0 0 0 0 0 0 0 0 0 0 0 0 0 0 0 0 0 0 0 0 0 0 0 0 0 0 0 0 0 0 0 0 0 0 0 0 0 0 0 0 0 0 0 0 0 0 0 0 0 0 0 0 0 0 0 0 0 0 0 0 0 0 0 0 0 0 0 0 0 0 0 0 0 0 0 0 0 0 0 0 0 0 0 0 0 0 0 0 0 0 0 0 0 0 0 0 0 0 0 0 0 0 0 0 0 0 0 0 0 0 0 0 0 0 0 0 0 0 0 0 0 0 0 0 0 0 0 0 0 0 0 0 0 0 0 0 0 0 0 0 0 0 0 0 0 0 0 0 0 0 0 0 0 0 0 0 0 0 0 0 0 0 0 0 0 0 0 0 0 0 0 0 0 0 0 0 0 0 0 0 0 0 0 0 0 0 0 0 0 0 0 0 0 0 0 0 0 0 0 0 0 0 0 0 0 0 0 0 0 0 0 0 0 0 0 0 0 0 0 0 0 0 0 0 0 0 0 0 0 0 0 0 0 0 0 0 0 0 0 0 0 0 0 0 0 0 0 0 0 0 0 0 0 0 0 0 0 0 0 0 0 0 0 0 0 0 0 0 0 0 0 0 0 0 0 0 0 0 0 0 0 0 0 0 0 0 0 0 0 0 0 0 0 0 0 0 0 0 0 0 0 0 0 0 0 0 0 0 0 0 0 0 0 0 0 0 0 0 0 0 0 0 0 0 0 0 0 0 0 0 0 0 0 0 0 0 0 0 0 0 0 0 0 0 0 0 0 0 0 0 0 0 0 0 ];
Traffic[0]class1Average hops = 1 (843235 samples)
traffic_manager/hop_stats_freq = [ 0 843235 0 0 0 0 0 0 0 0 0 0 0 0 0 0 0 0 0 0 ];
=======Traffic[1]class0 ======
Traffic[1]class0Overall average latency = 6.83597 (1 samples)
Traffic[1]class0Overall average accepted rate = 0.00494814 (1 samples)
Traffic[1]class0Overall min accepted rate = 0 (1 samples)
traffic_manager/latency_stat_0_freq = [ 0 10460 60 478 141 392822 8255 11340 341893 20091 7082 6622 16108 7198 13965 840 3024 630 649 516 273 285 227 45 78 22 59 21 16 12 5 7 4 1 2 1 1 0 0 0 1 0 1 0 0 0 0 0 0 0 0 0 0 0 0 0 0 0 0 0 0 0 0 0 0 0 0 0 0 0 0 0 0 0 0 0 0 0 0 0 0 0 0 0 0 0 0 0 0 0 0 0 0 0 0 0 0 0 0 0 0 0 0 0 0 0 0 0 0 0 0 0 0 0 0 0 0 0 0 0 0 0 0 0 0 0 0 0 0 0 0 0 0 0 0 0 0 0 0 0 0 0 0 0 0 0 0 0 0 0 0 0 0 0 0 0 0 0 0 0 0 0 0 0 0 0 0 0 0 0 0 0 0 0 0 0 0 0 0 0 0 0 0 0 0 0 0 0 0 0 0 0 0 0 0 0 0 0 0 0 0 0 0 0 0 0 0 0 0 0 0 0 0 0 0 0 0 0 0 0 0 0 0 0 0 0 0 0 0 0 0 0 0 0 0 0 0 0 0 0 0 0 0 0 0 0 0 0 0 0 0 0 0 0 0 0 0 0 0 0 0 0 0 0 0 0 0 0 0 0 0 0 0 0 0 0 0 0 0 0 0 0 0 0 0 0 0 0 0 0 0 0 0 0 0 0 0 0 0 0 0 0 0 0 0 0 0 0 0 0 0 0 0 0 0 0 0 0 0 0 0 0 0 0 0 0 0 0 0 0 0 0 0 0 0 0 0 0 0 0 0 0 0 0 0 0 0 0 0 0 0 0 0 0 0 0 0 0 0 0 0 0 0 0 0 0 0 0 0 0 0 0 0 0 0 0 0 0 0 0 0 0 0 0 0 0 0 0 0 0 0 0 0 0 0 0 0 0 0 0 0 0 0 0 0 0 0 0 0 0 0 0 0 0 0 0 0 0 0 0 0 0 0 0 0 0 0 0 0 0 0 0 0 0 0 0 0 0 0 0 0 0 0 0 0 0 0 0 0 0 0 0 0 0 0 0 0 0 0 0 0 0 0 0 0 0 0 0 0 0 0 0 0 0 0 0 0 0 0 0 0 0 0 0 0 0 0 0 0 0 0 0 0 0 0 0 0 0 0 0 0 0 0 0 0 0 0 0 0 0 0 0 0 0 0 0 0 0 0 0 0 0 0 0 0 0 0 0 0 0 0 0 0 0 0 0 0 0 0 0 0 0 0 0 0 0 0 0 0 0 0 0 0 0 0 0 0 0 0 0 0 0 0 0 0 0 0 0 0 0 0 0 0 0 0 0 0 0 0 0 0 0 0 0 0 0 0 0 0 0 0 0 0 0 0 0 0 0 0 0 0 0 0 0 0 0 0 0 0 0 0 0 0 0 0 0 0 0 0 0 0 0 0 0 0 0 0 0 0 0 0 0 0 0 0 0 0 0 0 0 0 0 0 0 0 0 0 0 0 0 0 0 0 0 0 0 0 0 0 0 0 0 0 0 0 0 0 0 0 0 0 0 0 0 0 0 0 0 0 0 0 0 0 0 0 0 0 0 0 0 0 0 0 0 0 0 0 0 0 0 0 0 0 0 0 0 0 0 0 0 0 0 0 0 0 0 0 0 0 0 0 0 0 0 0 0 0 0 0 0 0 0 0 0 0 0 0 0 0 0 0 0 0 0 0 0 0 0 0 0 0 0 0 0 0 0 0 0 0 0 0 0 0 0 0 0 0 0 0 0 0 0 0 0 0 0 0 0 0 0 0 0 0 0 0 0 0 0 0 0 0 0 0 0 0 0 0 0 0 0 0 0 0 0 0 0 0 0 0 0 0 0 0 0 0 0 0 0 0 0 0 0 0 0 0 0 0 0 0 0 0 0 0 0 0 0 0 0 0 0 0 0 0 0 0 0 0 0 0 0 0 0 0 0 0 0 0 0 0 0 0 0 0 0 0 0 0 0 0 0 0 0 0 0 0 0 0 0 0 0 0 0 0 0 0 0 0 0 0 0 0 0 0 0 0 0 0 0 0 0 0 0 0 0 0 0 0 0 0 0 0 0 0 0 0 0 0 0 0 0 0 0 0 0 0 0 0 0 0 0 0 0 0 0 0 0 0 0 0 0 0 0 0 0 0 0 0 0 0 0 0 0 0 0 0 0 0 0 0 0 0 0 0 0 0 0 0 0 0 0 0 0 0 0 0 0 0 0 0 0 0 0 0 0 0 0 0 0 0 0 0 0 0 0 0 0 0 0 0 0 ];
Traffic[1]class1Average hops = 1 (843235 samples)
traffic_manager/hop_stats_freq = [ 0 843235 0 0 0 0 0 0 0 0 0 0 0 0 0 0 0 0 0 0 ];
----------------------------END-of-Interconnect-DETAILS-------------------------

gpgpu_simulation_time = 0 days, 8 hrs, 19 min, 4 sec (29944 sec)
gpgpu_simulation_rate = 404533 (inst/sec)
gpgpu_simulation_rate = 611 (cycle/sec)
  computing plane 1
kernel '_Z29cuda_cutoff_potential_latticeiiP6float4fffPfi' transfer to GPU hardware scheduler
kernel_name = _Z29cuda_cutoff_potential_latticeiiP6float4fffPfi 
kernel_launch_uid = 2 
gpu_sim_cycle = 22342583
gpu_sim_insn = 14760151048
gpu_ipc =     660.6287
gpu_tot_sim_cycle = 40667720
gpu_tot_sim_insn = 26873499904
gpu_tot_ipc =     660.8066
gpu_tot_issued_cta = 0
gpu_stall_dramfull = 28727
gpu_stall_icnt2sh    = 88767
gpu_total_sim_rate=453967
Cache L1D_000:	Size = 16384 B (32 Set x 4-way x 128 byte line)
		Access = 259290, Miss = 117045 (0.451), PendingHit = 1883 (0.00726)
Cache L1D_001:	Size = 16384 B (32 Set x 4-way x 128 byte line)
		Access = 257950, Miss = 120526 (0.467), PendingHit = 782 (0.00303)
Cache L1D_002:	Size = 16384 B (32 Set x 4-way x 128 byte line)
		Access = 257950, Miss = 118058 (0.458), PendingHit = 969 (0.00376)
Cache L1D_003:	Size = 16384 B (32 Set x 4-way x 128 byte line)
		Access = 257950, Miss = 120545 (0.467), PendingHit = 721 (0.0028)
Cache L1D_004:	Size = 16384 B (32 Set x 4-way x 128 byte line)
		Access = 259960, Miss = 121398 (0.467), PendingHit = 1265 (0.00487)
Cache L1D_005:	Size = 16384 B (32 Set x 4-way x 128 byte line)
		Access = 259290, Miss = 109488 (0.422), PendingHit = 2554 (0.00985)
Cache L1D_006:	Size = 16384 B (32 Set x 4-way x 128 byte line)
		Access = 257950, Miss = 111565 (0.433), PendingHit = 3727 (0.0144)
Cache L1D_007:	Size = 16384 B (32 Set x 4-way x 128 byte line)
		Access = 259290, Miss = 114224 (0.441), PendingHit = 2215 (0.00854)
Cache L1D_008:	Size = 16384 B (32 Set x 4-way x 128 byte line)
		Access = 258620, Miss = 121229 (0.469), PendingHit = 471 (0.00182)
Cache L1D_009:	Size = 16384 B (32 Set x 4-way x 128 byte line)
		Access = 258620, Miss = 122430 (0.473), PendingHit = 261 (0.00101)
Cache L1D_010:	Size = 16384 B (32 Set x 4-way x 128 byte line)
		Access = 260630, Miss = 121252 (0.465), PendingHit = 1301 (0.00499)
Cache L1D_011:	Size = 16384 B (32 Set x 4-way x 128 byte line)
		Access = 257950, Miss = 111446 (0.432), PendingHit = 2958 (0.0115)
Cache L1D_012:	Size = 16384 B (32 Set x 4-way x 128 byte line)
		Access = 258620, Miss = 118311 (0.457), PendingHit = 1107 (0.00428)
Cache L1D_013:	Size = 16384 B (32 Set x 4-way x 128 byte line)
		Access = 259290, Miss = 121967 (0.47), PendingHit = 967 (0.00373)
total_dl1_misses=1649484
total_dl1_accesses=3623360
total_dl1_miss_rate= 0.455236
Shader 0 dynamic_warp_id issue ditsribution:
dynamic_warp_id:
0, 1, 2, 3, 4, 5, 6, 7, 8, 9, 10, 11, 12, 13, 14, 15, 16, 17, 18, 19, 20, 21, 22, 23, 24, 25, 26, 27, 28, 29, 30, 31, 32, 33, 34, 35, 36, 37, 38, 39, 40, 41, 42, 43, 44, 45, 46, 47, 48, 49, 50, 51, 52, 53, 54, 55, 56, 57, 58, 59, 60, 61, 62, 63, 64, 65, 66, 67, 68, 69, 70, 71, 72, 73, 74, 75, 76, 77, 78, 79, 80, 81, 82, 83, 84, 85, 86, 87, 88, 89, 90, 91, 92, 93, 94, 95, 96, 97, 98, 99, 100, 101, 102, 103, 104, 105, 106, 107, 108, 109, 110, 111, 112, 113, 114, 115, 116, 117, 118, 119, 120, 121, 122, 123, 124, 125, 126, 127, 128, 129, 130, 131, 132, 133, 134, 135, 136, 137, 138, 139, 140, 141, 142, 143, 144, 145, 146, 147, 148, 149, 150, 151, 152, 153, 154, 155, 156, 157, 158, 159, 160, 161, 162, 163, 164, 165, 166, 167, 168, 169, 170, 171, 172, 173, 174, 175, 176, 177, 178, 179, 180, 181, 182, 183, 184, 185, 186, 187, 188, 189, 190, 191, 192, 193, 194, 195, 196, 197, 198, 199, 200, 201, 202, 203, 204, 205, 206, 207, 208, 209, 210, 211, 212, 213, 214, 215, 216, 217, 218, 219, 220, 221, 222, 223, 224, 225, 226, 227, 228, 229, 230, 231, 232, 233, 234, 235, 236, 237, 238, 239, 240, 241, 242, 243, 244, 245, 246, 247, 248, 249, 250, 251, 252, 253, 254, 255, 256, 257, 258, 259, 260, 261, 262, 263, 264, 265, 266, 267, 268, 269, 270, 271, 272, 273, 274, 275, 276, 277, 278, 279, 280, 281, 282, 283, 284, 285, 286, 287, 288, 289, 290, 291, 292, 293, 294, 295, 296, 297, 298, 299, 300, 301, 302, 303, 304, 305, 306, 307, 308, 309, 310, 311, 312, 313, 314, 315, 316, 317, 318, 319, 320, 321, 322, 323, 324, 325, 326, 327, 328, 329, 330, 331, 332, 333, 334, 335, 336, 337, 338, 339, 340, 341, 342, 343, 344, 345, 346, 347, 348, 349, 350, 351, 352, 353, 354, 355, 356, 357, 358, 359, 360, 361, 362, 363, 364, 365, 366, 367, 368, 369, 370, 371, 372, 373, 374, 375, 376, 377, 378, 379, 380, 381, 382, 383, 384, 385, 386, 387, 388, 389, 390, 391, 392, 393, 394, 395, 396, 397, 398, 399, 400, 401, 402, 403, 404, 405, 406, 407, 408, 409, 410, 411, 412, 413, 414, 415, 416, 417, 418, 419, 420, 421, 422, 423, 424, 425, 426, 427, 428, 429, 430, 431, 432, 433, 434, 435, 436, 437, 438, 439, 440, 441, 442, 443, 444, 445, 446, 447, 448, 449, 450, 451, 452, 453, 454, 455, 456, 457, 458, 459, 460, 461, 462, 463, 464, 465, 466, 467, 468, 469, 470, 471, 472, 473, 474, 475, 476, 477, 478, 479, 480, 481, 482, 483, 484, 485, 486, 487, 488, 489, 490, 491, 492, 493, 494, 495, 496, 497, 498, 499, 500, 501, 502, 503, 504, 505, 506, 507, 508, 509, 510, 511, 512, 513, 514, 515, 516, 517, 518, 519, 520, 521, 522, 523, 524, 525, 526, 527, 528, 529, 530, 531, 532, 533, 534, 535, 536, 537, 538, 539, 540, 541, 542, 543, 544, 545, 546, 547, 548, 549, 550, 551, 552, 553, 554, 555, 556, 557, 558, 559, 560, 561, 562, 563, 564, 565, 566, 567, 568, 569, 570, 571, 572, 573, 574, 575, 576, 577, 578, 579, 580, 581, 582, 583, 584, 585, 586, 587, 588, 589, 590, 591, 592, 593, 594, 595, 596, 597, 598, 599, 600, 601, 602, 603, 604, 605, 606, 607, 608, 609, 610, 611, 612, 613, 614, 615, 616, 617, 618, 619, 620, 621, 622, 623, 624, 625, 626, 627, 628, 629, 630, 631, 632, 633, 634, 635, 636, 637, 638, 639, 640, 641, 642, 643, 644, 645, 646, 647, 648, 649, 650, 651, 652, 653, 654, 655, 656, 657, 658, 659, 660, 661, 662, 663, 664, 665, 666, 667, 668, 669, 670, 671, 672, 673, 674, 675, 676, 677, 678, 679, 680, 681, 682, 683, 684, 685, 686, 687, 688, 689, 690, 691, 692, 693, 694, 695, 696, 697, 698, 699, 700, 701, 702, 703, 704, 705, 706, 707, 708, 709, 710, 711, 712, 713, 714, 715, 716, 717, 718, 719, 720, 721, 722, 723, 724, 725, 726, 727, 728, 729, 730, 731, 732, 733, 734, 735, 736, 737, 738, 739, 740, 741, 742, 743, 744, 745, 746, 747, 748, 749, 750, 751, 752, 753, 754, 755, 756, 757, 758, 759, 760, 761, 762, 763, 764, 765, 766, 767, 768, 769, 770, 771, 772, 773, 774, 775, 776, 777, 778, 779, 780, 781, 782, 783, 784, 785, 786, 787, 788, 789, 790, 791, 792, 793, 794, 795, 796, 797, 798, 799, 800, 801, 802, 803, 804, 805, 806, 807, 808, 809, 810, 811, 812, 813, 814, 815, 816, 817, 818, 819, 820, 821, 822, 823, 824, 825, 826, 827, 828, 829, 830, 831, 832, 833, 834, 835, 836, 837, 838, 839, 840, 841, 842, 843, 844, 845, 846, 847, 848, 849, 850, 851, 852, 853, 854, 855, 856, 857, 858, 859, 860, 861, 862, 863, 864, 865, 866, 867, 868, 869, 870, 871, 872, 873, 874, 875, 876, 877, 878, 879, 880, 881, 882, 883, 884, 885, 886, 887, 888, 889, 890, 891, 892, 893, 894, 895, 896, 897, 898, 899, 900, 901, 902, 903, 904, 905, 906, 907, 908, 909, 910, 911, 912, 913, 914, 915, 916, 917, 918, 919, 920, 921, 922, 923, 924, 925, 926, 927, 928, 929, 930, 931, 932, 933, 934, 935, 936, 937, 938, 939, 940, 941, 942, 943, 944, 945, 946, 947, 948, 949, 950, 951, 952, 953, 954, 955, 956, 957, 958, 959, 960, 961, 962, 963, 964, 965, 966, 967, 968, 969, 970, 971, 972, 973, 974, 975, 976, 977, 978, 979, 980, 981, 982, 983, 984, 985, 986, 987, 988, 989, 990, 991, 992, 993, 994, 995, 996, 997, 998, 999, 1000, 1001, 1002, 1003, 1004, 1005, 1006, 1007, 1008, 1009, 1010, 1011, 1012, 1013, 1014, 1015, 1016, 1017, 1018, 1019, 1020, 1021, 1022, 1023, 1024, 1025, 1026, 1027, 1028, 1029, 1030, 1031, 1032, 1033, 1034, 1035, 1036, 1037, 1038, 1039, 1040, 1041, 1042, 1043, 1044, 1045, 1046, 1047, 1048, 1049, 1050, 1051, 1052, 1053, 1054, 1055, 1056, 1057, 1058, 1059, 1060, 1061, 1062, 1063, 1064, 1065, 1066, 1067, 1068, 1069, 1070, 1071, 1072, 1073, 1074, 1075, 1076, 1077, 1078, 1079, 1080, 1081, 1082, 1083, 1084, 1085, 1086, 1087, 1088, 1089, 1090, 1091, 1092, 1093, 1094, 1095, 1096, 1097, 1098, 1099, 1100, 1101, 1102, 1103, 1104, 1105, 1106, 1107, 1108, 1109, 1110, 1111, 1112, 1113, 1114, 1115, 1116, 1117, 1118, 1119, 1120, 1121, 1122, 1123, 1124, 1125, 1126, 1127, 1128, 1129, 1130, 1131, 1132, 1133, 1134, 1135, 1136, 1137, 1138, 1139, 1140, 1141, 1142, 1143, 1144, 1145, 1146, 1147, 1148, 1149, 1150, 1151, 1152, 1153, 1154, 1155, 1156, 1157, 1158, 1159, 1160, 1161, 1162, 1163, 1164, 1165, 1166, 1167, 1168, 1169, 1170, 1171, 1172, 1173, 1174, 1175, 1176, 1177, 1178, 1179, 1180, 1181, 1182, 1183, 1184, 1185, 1186, 1187, 1188, 1189, 1190, 1191, 1192, 1193, 1194, 1195, 1196, 1197, 1198, 1199, 1200, 1201, 1202, 1203, 1204, 1205, 1206, 1207, 1208, 1209, 1210, 1211, 1212, 1213, 1214, 1215, 1216, 1217, 1218, 1219, 1220, 1221, 1222, 1223, 1224, 1225, 1226, 1227, 1228, 1229, 1230, 1231, 1232, 1233, 1234, 1235, 1236, 1237, 1238, 1239, 1240, 1241, 1242, 1243, 1244, 1245, 1246, 1247, 1248, 1249, 1250, 1251, 1252, 1253, 1254, 1255, 1256, 1257, 1258, 1259, 1260, 1261, 1262, 1263, 1264, 1265, 1266, 1267, 1268, 1269, 1270, 1271, 1272, 1273, 1274, 1275, 1276, 1277, 1278, 1279, 1280, 1281, 1282, 1283, 1284, 1285, 1286, 1287, 1288, 1289, 1290, 1291, 1292, 1293, 1294, 1295, 1296, 1297, 1298, 1299, 1300, 1301, 1302, 1303, 1304, 1305, 1306, 1307, 1308, 1309, 1310, 1311, 1312, 1313, 1314, 1315, 1316, 1317, 1318, 1319, 1320, 1321, 1322, 1323, 1324, 1325, 1326, 1327, 1328, 1329, 1330, 1331, 1332, 1333, 1334, 1335, 1336, 1337, 1338, 1339, 1340, 1341, 1342, 1343, 1344, 1345, 1346, 1347, 1348, 1349, 1350, 1351, 1352, 1353, 1354, 1355, 1356, 1357, 1358, 1359, 1360, 1361, 1362, 1363, 1364, 1365, 1366, 1367, 1368, 1369, 1370, 1371, 1372, 1373, 1374, 1375, 1376, 1377, 1378, 1379, 1380, 1381, 1382, 1383, 1384, 1385, 1386, 1387, 1388, 1389, 1390, 1391, 1392, 1393, 1394, 1395, 1396, 1397, 1398, 1399, 1400, 1401, 1402, 1403, 1404, 1405, 1406, 1407, 1408, 1409, 1410, 1411, 1412, 1413, 1414, 1415, 1416, 1417, 1418, 1419, 1420, 1421, 1422, 1423, 1424, 1425, 1426, 1427, 1428, 1429, 1430, 1431, 1432, 1433, 1434, 1435, 1436, 1437, 1438, 1439, 1440, 1441, 1442, 1443, 1444, 1445, 1446, 1447, 1448, 1449, 1450, 1451, 1452, 1453, 1454, 1455, 1456, 1457, 1458, 1459, 1460, 1461, 1462, 1463, 1464, 1465, 1466, 1467, 1468, 1469, 1470, 1471, 1472, 1473, 1474, 1475, 1476, 1477, 1478, 1479, 1480, 1481, 1482, 1483, 1484, 1485, 1486, 1487, 1488, 1489, 1490, 1491, 1492, 1493, 1494, 1495, 1496, 1497, 1498, 1499, 1500, 1501, 1502, 1503, 1504, 1505, 1506, 1507, 1508, 1509, 1510, 1511, 1512, 1513, 1514, 1515, 1516, 1517, 1518, 1519, 1520, 1521, 1522, 1523, 1524, 1525, 1526, 1527, 1528, 1529, 1530, 1531, 1532, 1533, 1534, 1535, 1536, 1537, 1538, 1539, 1540, 1541, 1542, 1543, 1544, 1545, 1546, 1547, 
distro:
26494, 27007, 26647, 27232, 27377, 27926, 27521, 28133, 26045, 26432, 26108, 26594, 26537, 26906, 26654, 27077, 27194, 27725, 27374, 27878, 27349, 27997, 27475, 28069, 20774, 21026, 20864, 21107, 28768, 29182, 28966, 29317, 31901, 32243, 32072, 32423, 31712, 32243, 31847, 32378, 31553, 32039, 31805, 32210, 32532, 32982, 32694, 33090, 31278, 31584, 31440, 31818, 25734, 26031, 25851, 26211, 23404, 23584, 23530, 23719, 36836, 37070, 37061, 37295, 37713, 38037, 38010, 38298, 37298, 37595, 37442, 37955, 38321, 38699, 38528, 38933, 36498, 36687, 36705, 36948, 36031, 36265, 36274, 36499, 31525, 31552, 31750, 31705, 41093, 41084, 41273, 41336, 42257, 42239, 42464, 42437, 43231, 43159, 43519, 43411, 43105, 43123, 43312, 43384, 41531, 41540, 41756, 41720, 37763, 38042, 38042, 38204, 28081, 28153, 28225, 28288, 26336, 26291, 26462, 26426, 43029, 43047, 43281, 43290, 44404, 44395, 44674, 44647, 42709, 42772, 42907, 42970, 43620, 43566, 43836, 43809, 42260, 42404, 42512, 42656, 41698, 41707, 41932, 41959, 42580, 42598, 42841, 42895, 42782, 42863, 43106, 43133, 43019, 43073, 43325, 43298, 43116, 42999, 43323, 43332, 44520, 44709, 44799, 44880, 43336, 43408, 43606, 43633, 27833, 27878, 27995, 28004, 22560, 22578, 22668, 22704, 22821, 22785, 22884, 22875, 42824, 42860, 43175, 43157, 43427, 43400, 43661, 43562, 43411, 43384, 43672, 43618, 42403, 42466, 42628, 42628, 43537, 43420, 43789, 43690, 43931, 43949, 44129, 44183, 31549, 31603, 31720, 31783, 32737, 32746, 32944, 32863, 43900, 43747, 44053, 43990, 44370, 44253, 44667, 44505, 43605, 43479, 43920, 43767, 43953, 43980, 44232, 44214, 38454, 38553, 38643, 38796, 39435, 39390, 39741, 39660, 27060, 27060, 27249, 27186, 44142, 44286, 44385, 44529, 42468, 42423, 42765, 42657, 43679, 43652, 43967, 43877, 43419, 43302, 43617, 43563, 43824, 43851, 44067, 44103, 43525, 43723, 43732, 43984, 42523, 42478, 42748, 42730, 43522, 43288, 43747, 43585, 43520, 43439, 43817, 43682, 44132, 44240, 44348, 44348, 43907, 43916, 44159, 44150, 44333, 44297, 44531, 44531, 28565, 28565, 28718, 28691, 22448, 22448, 22601, 22610, 32712, 32721, 32883, 32901, 42777, 42840, 43065, 43056, 43710, 43674, 43980, 43863, 42209, 42182, 42461, 42434, 42425, 42353, 42695, 42686, 43465, 43501, 43663, 43807, 38180, 38207, 38414, 38405, 26988, 26997, 27123, 27177, 42987, 43014, 43338, 43275, 43901, 43874, 44162, 44099, 43890, 43899, 44097, 44079, 42984, 43047, 43245, 43191, 42310, 42247, 42589, 42490, 43837, 43810, 44062, 44053, 23093, 23048, 23237, 23183, 31903, 31858, 32101, 32029, 43317, 43299, 43596, 43659, 43510, 43492, 43834, 43807, 43295, 43088, 43502, 43376, 43818, 43845, 44088, 44079, 42619, 42565, 42889, 42790, 38817, 38817, 39042, 39105, 37818, 37809, 38025, 38070, 38259, 38313, 38439, 38520, 44182, 44281, 44461, 44479, 42800, 42764, 43034, 42962, 41611, 41476, 41926, 41746, 44091, 44073, 44307, 44244, 33442, 33451, 33667, 33658, 33847, 33838, 34009, 34036, 39179, 39269, 39467, 39476, 43271, 43289, 43559, 43532, 41656, 41611, 41917, 41890, 41587, 41668, 41911, 41956, 43530, 43557, 43782, 43782, 44619, 44412, 44862, 44718, 34308, 34290, 34470, 34443, 38799, 38898, 38970, 38988, 42731, 42740, 42911, 42929, 43430, 43340, 43637, 43583, 40790, 40988, 41042, 41240, 41474, 41465, 41744, 41789, 43746, 43656, 43917, 43818, 33519, 33573, 33672, 33744, 28217, 28253, 28289, 28352, 43102, 43219, 43291, 43471, 43309, 43309, 43525, 43534, 43795, 43741, 44020, 44029, 41662, 41653, 41842, 41851, 43194, 43212, 43383, 43455, 43771, 43789, 44104, 44005, 28338, 28401, 28455, 28563, 42848, 42722, 43019, 42911, 42649, 42658, 42919, 42946, 43201, 43057, 43381, 43273, 42472, 42490, 42724, 42697, 43311, 43383, 43527, 43572, 43332, 43161, 43602, 43458, 28480, 28534, 28660, 28660, 26626, 26563, 26752, 26689, 42084, 42066, 42336, 42327, 41844, 41916, 42078, 42096, 42798, 42780, 43023, 43041, 43414, 43549, 43567, 43819, 42094, 42049, 42364, 42292, 41634, 41580, 41859, 41877, 26611, 26611, 26737, 26683, 41724, 41724, 41976, 41985, 41839, 41902, 42073, 42154, 42900, 42954, 43269, 43197, 43384, 43465, 43663, 43690, 43088, 43097, 43313, 43322, 41636, 41690, 41888, 41888, 28647, 28557, 28773, 28701, 22540, 22531, 22603, 22576, 43470, 43542, 43686, 43731, 42748, 42721, 43027, 42973, 42116, 42323, 42431, 42476, 44581, 44491, 44806, 44716, 43656, 43692, 43863, 43917, 42229, 42175, 42427, 42355, 26859, 26859, 26976, 26976, 32782, 32782, 32980, 32998, 42639, 42747, 42936, 42990, 42897, 43023, 43158, 43248, 43811, 43694, 44063, 43919, 44063, 44162, 44342, 44369, 42374, 42347, 42599, 42581, 39295, 39367, 39556, 39637, 22730, 22802, 22820, 22865, 38341, 38161, 38602, 38386, 39600, 39357, 39789, 39519, 39738, 39594, 40026, 39783, 40349, 40169, 40646, 40403, 39298, 39154, 39487, 39379, 38649, 38424, 38865, 38622, 21806, 21572, 21896, 21644, 29946, 29649, 30126, 29856, 33117, 32820, 33297, 33000, 35329, 34897, 35527, 35050, 34289, 33974, 34505, 34172, 35305, 34954, 35521, 35152, 34642, 34201, 34831, 34363, 26857, 26542, 27019, 26641, 18951, 18798, 19014, 18861, 29311, 28825, 29473, 28996, 29379, 28929, 29559, 29100, 29739, 29109, 29919, 29226, 29530, 28999, 29710, 29170, 29215, 28693, 29377, 28855, 29605, 29011, 29731, 29101, 16634, 16382, 16724, 16418, 22936, 22531, 23035, 22594, 22944, 22521, 23079, 22629, 23593, 23098, 23719, 23197, 23972, 23414, 24116, 23540, 24534, 24012, 24651, 24093, 23765, 23126, 23882, 23234, 16469, 16235, 16568, 16289, 14583, 14322, 14601, 14349, 31537, 32248, 31618, 32401, 32320, 33121, 32455, 33175, 31053, 31737, 31134, 31854, 31895, 32606, 31985, 32813, 32438, 33131, 32537, 33212, 32409, 33075, 32481, 33183, 17610, 17925, 17655, 17970, 34247, 34832, 34373, 35003, 38460, 38910, 38586, 39144, 38656, 39142, 38746, 39331, 38497, 39190, 38632, 39334, 38945, 39449, 39080, 39665, 38358, 38862, 38484, 39087, 30621, 31125, 30666, 31206, 20819, 21080, 20882, 21125, 28324, 28612, 28450, 28666, 44644, 44977, 44869, 45202, 45946, 46513, 46180, 46720, 45304, 45862, 45511, 46060, 45095, 45554, 45293, 45707, 45432, 45864, 45648, 46170, 45121, 45535, 45337, 45733, 29561, 29750, 29687, 29885, 51104, 51032, 51446, 51320, 51919, 52036, 52126, 52306, 52896, 53076, 53193, 53265, 51713, 51767, 51902, 52028, 52542, 52722, 52794, 52929, 50949, 50985, 51228, 51210, 26132, 26114, 26195, 26177, 39564, 39591, 39699, 39726, 52600, 52708, 52753, 52906, 53034, 53106, 53277, 53277, 53655, 53538, 53880, 53808, 54001, 53983, 54208, 54109, 54375, 54546, 54546, 54717, 47947, 48019, 48154, 48172, 26695, 26722, 26767, 26812, 38870, 38933, 39086, 39113, 54186, 54051, 54303, 54285, 54189, 54207, 54432, 54423, 53849, 53993, 54155, 54173, 52997, 53042, 53231, 53267, 52535, 52526, 52760, 52742, 46936, 46963, 47107, 47116, 39377, 39431, 39458, 39557, 52247, 52382, 52508, 52535, 53671, 53680, 53896, 53860, 53495, 53468, 53630, 53765, 54666, 54819, 54909, 55008, 52616, 52778, 52868, 53057, 48067, 47986, 48328, 48175, 34488, 34605, 34605, 34659, 39002, 39065, 39101, 39263, 53401, 53320, 53644, 53527, 54107, 54134, 54287, 54359, 54450, 54603, 54612, 54837, 52583, 52718, 52754, 52952, 53057, 53075, 53309, 53237, 48217, 48163, 48379, 48397, 47078, 46997, 47231, 47168, 53264, 53345, 53444, 53552, 54324, 54351, 54522, 54432, 53485, 53386, 53719, 53602, 53456, 53600, 53699, 53888, 54141, 54186, 54375, 54411, 41615, 41579, 41732, 41705, 27524, 27524, 27614, 27569, 54681, 54537, 54933, 54807, 54260, 54143, 54386, 54242, 52923, 52977, 53121, 53220, 53786, 53831, 54002, 53957, 53740, 53749, 53920, 53974, 52772, 52988, 53060, 53222, 32359, 32251, 32503, 32368, 53242, 53170, 53467, 53431, 53767, 53659, 53929, 53866, 53770, 53788, 54022, 54013, 53091, 52983, 53442, 53190, 53874, 53802, 54117, 54072, 53138, 52985, 53363, 53345, 34662, 34680, 34806, 34779, 27029, 27128, 27047, 27218, 54546, 54618, 54726, 54807, 53168, 53150, 53456, 53375, 52813, 52822, 53083, 53074, 52895, 52913, 53156, 53174, 54155, 54191, 54362, 54416, 54212, 54230, 54383, 54374, 32596, 32596, 32659, 32722, 52179, 52197, 52377, 52431, 53754, 53682, 53970, 53916, 53674, 53539, 53863, 53692, 52590, 52563, 52743, 52788, 53168, 53231, 53420, 53402, 53548, 53449, 53728, 53647, 34543, 34588, 34660, 34714, 32967, 32949, 33048, 33075, 52978, 53032, 53158, 53221, 51942, 51942, 52257, 52140, 53319, 53265, 53481, 53481, 53646, 53574, 53799, 53718, 53178, 53124, 53403, 53268, 52671, 52761, 52959, 52932, 39994, 39877, 40165, 40102, 54253, 54181, 54460, 54397, 54969, 54879, 55140, 55068, 53084, 53012, 53300, 53264, 53046, 53073, 53271, 53199, 54337, 54184, 54481, 54409, 47560, 47434, 47749, 47650, 27565, 27493, 27592, 27583, 40182, 40173, 40290, 40362, 53938, 53857, 54145, 54091, 52871, 52934, 52979, 53141, 53228, 53156, 53444, 53345, 52664, 52772, 52952, 52970, 52720, 52801, 53044, 52972, 48445, 48274, 48625, 48418, 40238, 40265, 40337, 40472, 53051, 52943, 53267, 53132, 52417, 52273, 52651, 52498, 51491, 51500, 51662, 51725, 52094, 52202, 52436, 52517, 52730, 52640, 52991, 52910, 47304, 47250, 47529, 47421, 26985, 26985, 27066, 27084, 51579, 51507, 51831, 51831, 52523, 52541, 52766, 52748, 53486, 53504, 53729, 53738, 52225, 52369, 52441, 52585, 53539, 53620, 53728, 53836, 52700, 52754, 52934, 53024, 33476, 33521, 33647, 33665, 45128, 45245, 45335, 45398, 45569, 45659, 45839, 45884, 53807, 53816, 54041, 54032, 53180, 53360, 53324, 53567, 53450, 53675, 53765, 53891, 53232, 53142, 53376, 53295, 40300, 40102, 40417, 40327, 41011, 40993, 41155, 41182, 53017, 52819, 53242, 53071, 53300, 53255, 53408, 53507, 52926, 53187, 53250, 53376, 53228, 53228, 53453, 53417, 54558, 54369, 54693, 54549, 53871, 53781, 54006, 53988, 26893, 26929, 26992, 27019, 52652, 52625, 52850, 52751, 52282, 52435, 52552, 52732, 53436, 53328, 53625, 53499, 54154, 54235, 54361, 54469, 53311, 53239, 53545, 53518, 53903, 53822, 54146, 54074, 26718, 26736, 26826, 26835, 26871, 26925, 27015, 27051, 39419, 39401, 39473, 39518, 53864, 53900, 54071, 54080, 54269, 54269, 54458, 54503, 53822, 53840, 54101, 54101, 54810, 54792, 54954, 54882, 53431, 53485, 53683, 53764, 48241, 48304, 48466, 48502, 41538, 41313, 41790, 41430, 41943, 41601, 42159, 41763, 47948, 47588, 48164, 47831, 48344, 48128, 48605, 48317, 48803, 48488, 49028, 48677, 47569, 47389, 47767, 47515, 37070, 36962, 37259, 37115, 37439, 37241, 37529, 37367, 40252, 39676, 40450, 39946, 41766, 41298, 41919, 41424, 42531, 41910, 42675, 42054, 43115, 42431, 43250, 42593, 41731, 41236, 41938, 41434, 41644, 41185, 41752, 41320, 27601, 27268, 27772, 27358, 34549, 34027, 34702, 34180, 34801, 34288, 34945, 34414, 35199, 34614, 35343, 34749, 35591, 34916, 35699, 34988, 35789, 34988, 35933, 35105, 35215, 34477, 35323, 34612, 19355, 19040, 19391, 19094, 19508, 19193, 19598, 19274, 28004, 27374, 28103, 27473, 28667, 27992, 28775, 28037, 27901, 27379, 28054, 27433, 28776, 28092, 28875, 28146, 28489, 27796, 28552, 27931, 27953, 27305, 28061, 27359, 
gpgpu_n_tot_thrd_icount = 28723572160
gpgpu_n_tot_w_icount = 897611630
gpgpu_n_icache_hits = 487237860
gpgpu_n_icache_misses = 2015
gpgpu_n_l1dcache_read_hits = 1952695
gpgpu_n_l1dcache_read_misses = 1670665
gpgpu_n_l1dcache_write_accesses = 21632
gpgpu_n_l1dcache_wirte_misses = 21632
gpgpu_n_tcache_hits = 0
gpgpu_n_tcache_misses = 0
gpgpu_n_ccache_hits = 40998316
gpgpu_n_ccache_misses = 4034
gpgpu_n_stall_shd_mem = 4180811
gpgpu_n_mem_read_local = 0
gpgpu_n_mem_write_local = 0
gpgpu_n_mem_read_global = 1649484
gpgpu_n_mem_write_global = 21632
gpgpu_n_mem_texture = 0
gpgpu_n_mem_const = 924
gpgpu_n_load_insn  = 115947520
gpgpu_n_store_insn = 1384448
gpgpu_n_shmem_insn = -159355968
gpgpu_n_tex_insn = 0
gpgpu_n_const_mem_insn = 175305728
gpgpu_n_param_mem_insn = -2053555264
gpgpu_n_shmem_bkconflict = 0
gpgpu_n_cache_bkconflict = 0
gpgpu_n_intrawarp_mshr_merge = 0
gpgpu_n_cmem_portconflict = 567840
gpgpu_stall_shd_mem[c_mem][bk_conf] = 567840
gpgpu_stall_shd_mem[c_mem][mshr_rc] = 0
gpgpu_stall_shd_mem[c_mem][icnt_rc] = 0
gpgpu_stall_shd_mem[t_mem][mshr_rc] = 0
gpgpu_stall_shd_mem[t_mem][icnt_rc] = 0
gpgpu_stall_shd_mem[s_mem][bk_conf] = 1806272
gpgpu_stall_shd_mem[gl_mem][bk_conf] = 0
gpgpu_stall_shd_mem[gl_mem][coal_stall] = 1806699
gpgpu_stall_shd_mem[g_mem_ld][mshr_rc] = 0
gpgpu_stall_shd_mem[g_mem_ld][icnt_rc] = 0
gpgpu_stall_shd_mem[g_mem_ld][wb_icnt_rc] = 0
gpgpu_stall_shd_mem[g_mem_ld][wb_rsrv_fail] = 0
gpgpu_stall_shd_mem[g_mem_st][mshr_rc] = 0
gpgpu_stall_shd_mem[g_mem_st][icnt_rc] = 0
gpgpu_stall_shd_mem[g_mem_st][wb_icnt_rc] = 0
gpgpu_stall_shd_mem[g_mem_st][wb_rsrv_fail] = 0
gpgpu_stall_shd_mem[l_mem_ld][mshr_rc] = 0
gpgpu_stall_shd_mem[l_mem_ld][icnt_rc] = 0
gpgpu_stall_shd_mem[l_mem_ld][wb_icnt_rc] = 0
gpgpu_stall_shd_mem[l_mem_ld][wb_rsrv_fail] = 0
gpgpu_stall_shd_mem[l_mem_st][mshr_rc] = 0
gpgpu_stall_shd_mem[l_mem_st][icnt_rc] = 0
gpgpu_stall_shd_mem[l_mem_ld][wb_icnt_rc] = 0
gpgpu_stall_shd_mem[l_mem_ld][wb_rsrv_fail] = 0
gpu_reg_bank_conflict_stalls = 0
Warp Occupancy Distribution:
Stall:27098723	W0_Idle:196869	W0_Scoreboard:211677134	W1:2739969	W2:1854549	W3:2044566	W4:1984113	W5:1268649	W6:1913121	W7:1053396	W8:1998522	W9:1108584	W10:1375506	W11:1064574	W12:1645200	W13:1041615	W14:1547163	W15:1045179	W16:1922152	W17:946719	W18:1370475	W19:944073	W20:1519083	W21:1011402	W22:1481094	W23:965808	W24:1666557	W25:974601	W26:1374714	W27:874305	W28:1767222	W29:1405089	W30:1393398	W31:2522763	W32:851787469
maxmrqlatency = 73 
maxdqlatency = 0 
maxmflatency = 514 
averagemflatency = 130 
max_icnt2mem_latency = 338 
max_icnt2sh_latency = 40667719 
mrq_lat_table:25073 	10575 	2426 	7750 	10782 	1024 	2 	0 	0 	0 	0 	0 	0 	0 	0 	0 	0 	0 	0 	0 	0 	0 	0 	0 	0 	0 	0 	0 	0 	0 	0 	0 	
dq_lat_table:0 	0 	0 	0 	0 	0 	0 	0 	0 	0 	0 	0 	0 	0 	0 	0 	0 	0 	0 	0 	0 	0 	0 	0 	0 	0 	0 	0 	0 	0 	0 	0 	
mf_lat_table:0 	0 	0 	0 	0 	0 	784546 	875228 	12265 	1 	0 	0 	0 	0 	0 	0 	0 	0 	0 	0 	0 	0 	0 	0 	0 	0 	0 	0 	0 	0 	0 	0 	
icnt2mem_lat_table:141 	1646883 	23216 	305 	321 	491 	580 	277 	8 	0 	0 	0 	0 	0 	0 	0 	0 	0 	0 	0 	0 	0 	0 	0 	
icnt2sh_lat_table:0 	798367 	838818 	13188 	35 	0 	0 	0 	0 	0 	0 	0 	0 	0 	0 	0 	0 	168 	168 	352 	656 	1180 	2300 	4692 	
mf_lat_pw_table:8392 	3724 	0 	0 	0 	0 	50292 	22649 	92 	0 	0 	0 	0 	0 	0 	0 	0 	0 	0 	0 	0 	0 	0 	0 	0 	0 	0 	0 	0 	0 	0 	0 	
maximum concurrent accesses to same row:
dram[0]:        64        64        64        64        64        64        64        64        64        64        64        64        64        64        64        64 
dram[1]:        64        64        64        64        64        64        64        64        64        64        64        64        64        64        64        64 
dram[2]:        64        64        64        64        64        64        64        64        64        64        64        64        64        64        64        64 
dram[3]:        64        64        64        64        64        64        64        64        64        64        64        64        64        64        64        64 
dram[4]:        64        64        64        64        64        64        64        64        64        64        64        64        64        64        64        64 
maximum service time to same row:
dram[0]:   5775732   5494372   5854110   5559244   5762840   5202131   5670912   5600751   5637482   5631296   5441392   5693585   5493094   5578106   5191736   5728779 
dram[1]:   5775732   5494363   5854106   5559165   5762839   5168916   5670917   5600749   5637484   5631293   5441396   5693592   5483948   5578100   5081255   5728776 
dram[2]:   5775739   5499374   5860062   5549681   5760840   5317408   5673900   5608910   5639375   5646379   5418982   5692283   5483961   5574858   5049182   5715084 
dram[3]:   5775732   5499373   5860062   5566072   5771134   5208941   5673894   5608899   5636243   5646377   5418991   5692284   5482175   5574864   5347894   5715084 
dram[4]:   5759025   5471190   5858531   5644528   5779712   5334134   5465016   5611241   5631571   5631536   5414926   5736259   5609118   5582889   5320598   5641584 
average row accesses per activate:
dram[0]:  8.816092  8.380953  7.652174  9.915493 27.916666 12.679245 12.000000 11.047619 10.057143  8.771085 10.869565 14.153846 13.629630 14.384615 13.473684  9.253012 
dram[1]:  9.456790  8.585366  7.910112  8.380953 24.000000 13.714286 12.444445 10.707692 10.057143  7.583333  9.842105 15.659575 12.912281 12.896552 12.387096  8.439561 
dram[2]:  8.148936  8.481928  8.585366  7.910112 24.000000 12.679245 12.218182 11.442623  9.915493  9.100000 10.535212 14.153846 14.431373 12.229508 13.714286  8.439561 
dram[3]:  9.107142  8.380953  8.186047  8.380953 25.846153 12.000000 11.586206 12.034483 10.202899  8.611765 10.246575 14.153846 14.153846 12.862069 16.000000  8.258064 
dram[4]:  8.172043  8.091954  7.410526  8.433735 22.400000 12.000000 12.000000 11.633333  9.142858  8.318182 10.685715 14.153846 12.266666 12.096774 15.360000  8.827586 
average row locality = 57632/5389 = 10.694378
number of total memory accesses made:
dram[0]:         0         0         0         0         0         0         0         0         0         0         0         0         0         0         0         0 
dram[1]:         0         0         0         0         0         0         0         0         0         0         0         0         0         0         0         0 
dram[2]:         0         0         0         0         0         0         0         0         0         0         0         0         0         0         0         0 
dram[3]:         0         0         0         0         0         0         0         0         0         0         0         0         0         0         0         0 
dram[4]:         0         0         0         0         0         0         0         0         0         0         0         0         0         0         0         0 
total accesses: 0
min_bank_accesses = 0!
min_chip_accesses = 0!
number of total read accesses:
dram[0]:       485       448       448       448       414       416       416       440       448       460       462       448       448       460       480       480 
dram[1]:       484       448       448       448       416       416       416       440       448       460       460       448       448       460       480       480 
dram[2]:       484       448       448       448       416       416       416       442       448       460       460       448       448       458       480       480 
dram[3]:       483       448       448       448       416       416       416       442       448       462       460       448       448       458       480       480 
dram[4]:       480       448       448       444       416       416       416       442       448       462       460       448       448       462       480       480 
total reads: 36000
bank skew: 485/414 = 1.17
chip skew: 7201/7198 = 1.00
number of total write accesses:
dram[0]:       282       256       256       256       256       256       256       256       256       268       288       288       288       288       288       288 
dram[1]:       282       256       256       256       256       256       256       256       256       268       288       288       288       288       288       288 
dram[2]:       282       256       256       256       256       256       256       256       256       268       288       288       288       288       288       288 
dram[3]:       282       256       256       256       256       256       256       256       256       270       288       288       288       288       288       288 
dram[4]:       280       256       256       256       256       256       256       256       256       270       288       288       288       288       288       288 
total reads: 21632
bank skew: 288/256 = 1.12
chip skew: 4328/4326 = 1.00
average mf latency per bank:
dram[0]:       3628      4332      4912      3064      2995      4396      3723      3449      4879      4171      2900      3885      3709      2407      3852      4526
dram[1]:       3618      4357      4893      3055      3025      4415      3705      3461      4888      4149      2921      3907      3687      2401      3880      4510
dram[2]:       3639      4324      4907      3089      2975      4415      3737      3420      4883      4178      2914      3884      3709      2408      3841      4510
dram[3]:       3667      4286      4925      3136      2956      4401      3764      3391      4857      4204      2932      3862      3747      2401      3794      4520
dram[4]:       3677      4298      4912      3134      2973      4397      3747      3405      4860      4189      2917      3870      3737      2394      3809      4529
maximum mf latency per bank:
dram[0]:        444       296       278       274       408       323       288       385       368       296       373       466       270       460       407       286
dram[1]:        432       429       273       274       445       402       281       361       412       274       400       401       273       374       464       273
dram[2]:        298       380       288       273       383       430       273       402       282       273       377       477       280       359       483       274
dram[3]:        376       274       272       275       514       408       273       452       315       272       436       320       273       367       374       280
dram[4]:        309       273       272       273       433       348       305       398       369       275       371       398       274       457       381       276

Number of Memory Banks Accessed per Memory Operation per Warp (from 0):
0	0	0	0	0	0	0	0	0	0	0	0	0	0	0	0	0	0	0	0	0	0	0	0	0	0	0	0	0	0	0	0	0	0	0	0	0	0	0	0	0	0	0	0	0	0	0	0	0	0	0	0	0	0	0	0	0	0	0	0	0	0	0	0	0	0	0	0	0	0	0	0	0	0	0	0	0	0	0	0	
Average # of Memory Banks Accessed per Memory Operation per Warp=-nan

position of mrq chosen
0	0	0	0	0	0	0	0	0	0	0	0	0	0	0	0	

average position of mrq chosen = -nan
gpgpu_l2_write_miss = 0
gpgpu_l2_write_access = 0
gpgpu_l2_read_miss = 0
gpgpu_l2_read_access = 0
Cache L2_bank_000:
MSHR contents
MSHR: tag=0x802a3780, atomic=0 1 entries : 0x2b22d59ab850 :  mf: uid=531909276, sid04:w07, part=0, addr=0x802a3780, load , size=128, unknown  status = IN_PARTITION_DRAM (40667719), 

DRAM[0]: 16 bks, busW=4 BL=8 CL=12, tRRD=2 tCCD=6, tRCD=12 tRAS=28 tRP=12 tRC=40
n_cmd=50834649 n_nop=50809511 n_act=1051 n_pre=1035 n_req=11527 n_rd=14400 n_write=8652 bw_util=0.0009069
n_activity=200133 dram_eff=0.2304
bk0: 968a 50828623i bk1: 896a 50828537i bk2: 896a 50828930i bk3: 896a 50828973i bk4: 828a 50828436i bk5: 832a 50828487i bk6: 832a 50828181i bk7: 880a 50828200i bk8: 896a 50826968i bk9: 920a 50827248i bk10: 924a 50827494i bk11: 896a 50828881i bk12: 896a 50825819i bk13: 920a 50825377i bk14: 960a 50824762i bk15: 960a 50801164i 
dram_util_bins: 0 0 0 0 0 0 0 0 0 0
dram_eff_bins: 0 0 0 0 0 0 0 0 0 0
mrqq: max=6 avg=0.00185338
Cache L2_bank_001:
MSHR contents

DRAM[1]: 16 bks, busW=4 BL=8 CL=12, tRRD=2 tCCD=6, tRCD=12 tRAS=28 tRP=12 tRC=40
n_cmd=50834649 n_nop=50809433 n_act=1090 n_pre=1074 n_req=11526 n_rd=14400 n_write=8652 bw_util=0.0009069
n_activity=201421 dram_eff=0.2289
bk0: 968a 50828805i bk1: 896a 50828820i bk2: 896a 50828953i bk3: 896a 50828551i bk4: 832a 50827971i bk5: 832a 50828353i bk6: 832a 50828650i bk7: 880a 50828464i bk8: 896a 50827276i bk9: 920a 50827238i bk10: 920a 50827834i bk11: 896a 50829165i bk12: 896a 50825882i bk13: 920a 50825164i bk14: 960a 50824287i bk15: 960a 50799934i 
dram_util_bins: 0 0 0 0 0 0 0 0 0 0
dram_eff_bins: 0 0 0 0 0 0 0 0 0 0
mrqq: max=6 avg=0.00184382
Cache L2_bank_002:
MSHR contents

DRAM[2]: 16 bks, busW=4 BL=8 CL=12, tRRD=2 tCCD=6, tRCD=12 tRAS=28 tRP=12 tRC=40
n_cmd=50834649 n_nop=50809455 n_act=1079 n_pre=1063 n_req=11526 n_rd=14400 n_write=8652 bw_util=0.0009069
n_activity=201204 dram_eff=0.2291
bk0: 968a 50828820i bk1: 896a 50828566i bk2: 896a 50828790i bk3: 896a 50828709i bk4: 832a 50827980i bk5: 832a 50828102i bk6: 832a 50828382i bk7: 884a 50828466i bk8: 896a 50827003i bk9: 920a 50827069i bk10: 920a 50827462i bk11: 896a 50829030i bk12: 896a 50825933i bk13: 916a 50825564i bk14: 960a 50824971i bk15: 960a 50800739i 
dram_util_bins: 0 0 0 0 0 0 0 0 0 0
dram_eff_bins: 0 0 0 0 0 0 0 0 0 0
mrqq: max=6 avg=0.00183003
Cache L2_bank_003:
MSHR contents

DRAM[3]: 16 bks, busW=4 BL=8 CL=12, tRRD=2 tCCD=6, tRCD=12 tRAS=28 tRP=12 tRC=40
n_cmd=50834649 n_nop=50809473 n_act=1067 n_pre=1051 n_req=11529 n_rd=14402 n_write=8656 bw_util=0.0009072
n_activity=200927 dram_eff=0.2295
bk0: 966a 50828607i bk1: 896a 50828843i bk2: 896a 50828736i bk3: 896a 50828808i bk4: 832a 50828071i bk5: 832a 50828369i bk6: 832a 50828539i bk7: 884a 50828777i bk8: 896a 50827218i bk9: 924a 50827362i bk10: 920a 50827318i bk11: 896a 50828727i bk12: 896a 50825480i bk13: 916a 50825380i bk14: 960a 50824684i bk15: 960a 50800804i 
dram_util_bins: 0 0 0 0 0 0 0 0 0 0
dram_eff_bins: 0 0 0 0 0 0 0 0 0 0
mrqq: max=7 avg=0.00182722
Cache L2_bank_004:
MSHR contents
MSHR: tag=0x802a3600, atomic=0 1 entries : 0x2b22d59ab670 :  mf: uid=531909275, sid04:w04, part=4, addr=0x802a3600, load , size=128, unknown  status = IN_PARTITION_DRAM (40667719), 

DRAM[4]: 16 bks, busW=4 BL=8 CL=12, tRRD=2 tCCD=6, tRCD=12 tRAS=28 tRP=12 tRC=40
n_cmd=50834649 n_nop=50809405 n_act=1107 n_pre=1091 n_req=11524 n_rd=14394 n_write=8652 bw_util=0.0009067
n_activity=202129 dram_eff=0.228
bk0: 958a 50828614i bk1: 896a 50828611i bk2: 896a 50829164i bk3: 888a 50829229i bk4: 832a 50828373i bk5: 832a 50828156i bk6: 832a 50828261i bk7: 884a 50828460i bk8: 896a 50827177i bk9: 924a 50827248i bk10: 920a 50827524i bk11: 896a 50829068i bk12: 896a 50825786i bk13: 924a 50825190i bk14: 960a 50824492i bk15: 960a 50799578i 
dram_util_bins: 0 0 0 0 0 0 0 0 0 0
dram_eff_bins: 0 0 0 0 0 0 0 0 0 0
mrqq: max=7 avg=0.00181882
Cache L2_bank_000:	Size = 131072 B (64 Set x 16-way x 128 byte line)
		Access = 334425, Miss = 7201 (0.0215), PendingHit = 765 (0.00229)
Cache L2_bank_001:	Size = 131072 B (64 Set x 16-way x 128 byte line)
		Access = 334400, Miss = 7200 (0.0215), PendingHit = 735 (0.0022)
Cache L2_bank_002:	Size = 131072 B (64 Set x 16-way x 128 byte line)
		Access = 334417, Miss = 7200 (0.0215), PendingHit = 744 (0.00222)
Cache L2_bank_003:	Size = 131072 B (64 Set x 16-way x 128 byte line)
		Access = 334521, Miss = 7201 (0.0215), PendingHit = 780 (0.00233)
Cache L2_bank_004:	Size = 131072 B (64 Set x 16-way x 128 byte line)
		Access = 334459, Miss = 7198 (0.0215), PendingHit = 729 (0.00218)
L2 Cache Total Miss Rate = 0.022

icnt_total_pkts_mem_to_simt=8272734
icnt_total_pkts_simt_to_mem=1758750

LD_mem_lat_dist  0 0 0 0 0 0 0 0 0 0 0 0 0 0 0 0 0 0 0 0 0 0 0 0 0 0 0
ST_mem_lat_dist  0 0 0 0 0 0 0 0 0 0 0 0 0 0 0 0 0 0 0 0 0 0 0 0 0 0 0
Traffic 0 Stat
%=================================
% Average latency = 1.07273
% Accepted packets = 0 at node 0 (avg = 0.000848692)
lat(3) = 1.07273;
thru(3,:) = [ 0 0 0 0 0 0 0 0 0 0 0 0 0 0 0.003904 0.00390376 0.00390425 0.00390407 0.00390385 0 0 0 0 ];
% latency change    = 5.3725
% throughput change = 4.83031
Traffic 1 Stat
%=================================
% Average latency = 6.80514
% Accepted packets = 0 at node 14 (avg = 0.00399089)
lat(4) = 6.80514;
thru(4,:) = [ 0.00660403 0.00684684 0.00658077 0.00671256 0.00685733 0.00566221 0.0058491 0.00612454 0.00663234 0.00692125 0.00682788 0.00643965 0.00684225 0.00688969 0 0 0 0 0 0 0 0 0 ];
% latency change    = 0.842365
% throughput change = 0.787343
----------------------------Interconnect-DETAILS---------------------------------=======Traffic[0]class0 ======
Traffic[0]class0Overall average latency = 1.08758 (2 samples)
Traffic[0]class0Overall average accepted rate = 0.000950174 (2 samples)
Traffic[0]class0Overall min accepted rate = 0 (2 samples)
traffic_manager/latency_stat_0_freq = [ 0 814175 3655 105 83 7438 1090 351 1530 379 112 12 2 1 1 0 0 3 0 2 0 3 0 1 0 5 0 5 0 1 0 1 0 1 0 2 0 0 0 0 0 0 0 0 0 1 0 0 0 0 0 0 0 0 0 0 0 0 0 2 0 0 0 0 0 0 0 0 0 0 0 0 0 1 0 0 0 2 0 0 0 0 0 0 0 2 0 2 0 0 0 0 0 2 0 0 0 1 0 3 0 1 0 0 0 0 0 0 0 0 0 1 0 0 0 0 0 0 0 0 0 0 0 0 0 0 0 0 0 0 0 0 0 0 0 4 0 1 0 0 0 0 0 0 0 1 0 0 0 0 0 0 0 0 0 0 0 0 0 0 0 0 0 0 0 0 0 0 0 0 0 0 0 0 0 0 0 0 0 0 0 0 0 0 0 0 0 0 0 0 0 0 0 0 0 0 0 0 0 1 0 0 0 0 0 0 0 0 0 2 0 0 0 0 0 0 0 0 0 1 0 0 0 1 0 0 0 0 0 0 0 0 0 0 0 0 0 0 0 0 0 0 0 0 0 0 0 0 0 0 0 0 0 0 0 0 0 0 0 0 0 0 0 0 0 0 0 0 0 0 0 0 0 0 0 0 0 0 0 0 0 0 0 0 0 0 0 0 0 0 0 0 0 0 0 0 0 0 0 0 0 0 0 0 0 0 0 0 0 0 0 0 0 0 0 0 0 0 0 0 0 0 0 0 0 0 0 0 0 0 0 0 0 0 0 0 0 0 0 0 0 0 0 0 0 0 0 0 0 0 0 0 0 0 0 0 0 0 0 0 0 0 0 0 0 0 0 0 0 0 0 0 0 0 0 0 0 0 0 0 0 0 0 0 0 0 0 0 0 0 0 0 0 0 0 0 0 0 0 0 0 0 0 0 0 0 0 0 0 0 0 0 0 0 0 0 0 0 0 0 0 0 0 0 0 0 0 0 0 0 0 0 0 0 0 0 0 0 0 0 0 0 0 0 0 0 0 0 0 0 0 0 0 0 0 0 0 0 0 0 0 0 0 0 0 0 0 0 0 0 0 0 0 0 0 0 0 0 0 0 0 0 0 0 0 0 0 0 0 0 0 0 0 0 0 0 0 0 0 0 0 0 0 0 0 0 0 0 0 0 0 0 0 0 0 0 0 0 0 0 0 0 0 0 0 0 0 0 0 0 0 0 0 0 0 0 0 0 0 0 0 0 0 0 0 0 0 0 0 0 0 0 0 0 0 0 0 0 0 0 0 0 0 0 0 0 0 0 0 0 0 0 0 0 0 0 0 0 0 0 0 0 0 0 0 0 0 0 0 0 0 0 0 0 0 0 0 0 0 0 0 0 0 0 0 0 0 0 0 0 0 0 0 0 0 0 0 0 0 0 0 0 0 0 0 0 0 0 0 0 0 0 0 0 0 0 0 0 0 0 0 0 0 0 0 0 0 0 0 0 0 0 0 0 0 0 0 0 0 0 0 0 0 0 0 0 0 0 0 0 0 0 0 0 0 0 0 0 0 0 0 0 0 0 0 0 0 0 0 0 0 0 0 0 0 0 0 0 0 0 0 0 0 0 0 0 0 0 0 0 0 0 0 0 0 0 0 0 0 0 0 0 0 0 0 0 0 0 0 0 0 0 0 0 0 0 0 0 0 0 0 0 0 0 0 0 0 0 0 0 0 0 0 0 0 0 0 0 0 0 0 0 0 0 0 0 0 0 0 0 0 0 0 0 0 0 0 0 0 0 0 0 0 0 0 0 0 0 0 0 0 0 0 0 0 0 0 0 0 0 0 0 0 0 0 0 0 0 0 0 0 0 0 0 0 0 0 0 0 0 0 0 0 0 0 0 0 0 0 0 0 0 0 0 0 0 0 0 0 0 0 0 0 0 0 0 0 0 0 0 0 0 0 0 0 0 0 0 0 0 0 0 0 0 0 0 0 0 0 0 0 0 0 0 0 0 0 0 0 0 0 0 0 0 0 0 0 0 0 0 0 0 0 0 0 0 0 0 0 0 0 0 0 0 0 0 0 0 0 0 0 0 0 0 0 0 0 0 0 0 0 0 0 0 0 0 0 0 0 0 0 0 0 0 0 0 0 0 0 0 0 0 0 0 0 0 0 0 0 0 0 0 0 0 0 0 0 0 0 0 0 0 0 0 0 0 0 0 0 0 0 0 0 0 0 0 0 0 0 0 0 0 0 0 0 0 0 0 0 0 0 0 0 0 0 0 0 0 0 0 ];
Traffic[0]class1Average hops = 1 (1672222 samples)
traffic_manager/hop_stats_freq = [ 0 1672222 0 0 0 0 0 0 0 0 0 0 0 0 0 0 0 0 0 0 ];
=======Traffic[1]class0 ======
Traffic[1]class0Overall average latency = 6.82055 (2 samples)
Traffic[1]class0Overall average accepted rate = 0.00446951 (2 samples)
Traffic[1]class0Overall min accepted rate = 0 (2 samples)
traffic_manager/latency_stat_0_freq = [ 0 10531 58 46 49 389077 7905 10901 338541 18227 6483 5996 15085 6872 13571 658 2587 543 575 445 221 202 212 43 65 17 32 17 8 1 3 8 3 0 2 0 0 1 0 0 0 2 0 0 0 0 0 0 0 0 0 0 0 0 0 0 0 0 0 0 0 0 0 0 0 0 0 0 0 0 0 0 0 0 0 0 0 0 0 0 0 0 0 0 0 0 0 0 0 0 0 0 0 0 0 0 0 0 0 0 0 0 0 0 0 0 0 0 0 0 0 0 0 0 0 0 0 0 0 0 0 0 0 0 0 0 0 0 0 0 0 0 0 0 0 0 0 0 0 0 0 0 0 0 0 0 0 0 0 0 0 0 0 0 0 0 0 0 0 0 0 0 0 0 0 0 0 0 0 0 0 0 0 0 0 0 0 0 0 0 0 0 0 0 0 0 0 0 0 0 0 0 0 0 0 0 0 0 0 0 0 0 0 0 0 0 0 0 0 0 0 0 0 0 0 0 0 0 0 0 0 0 0 0 0 0 0 0 0 0 0 0 0 0 0 0 0 0 0 0 0 0 0 0 0 0 0 0 0 0 0 0 0 0 0 0 0 0 0 0 0 0 0 0 0 0 0 0 0 0 0 0 0 0 0 0 0 0 0 0 0 0 0 0 0 0 0 0 0 0 0 0 0 0 0 0 0 0 0 0 0 0 0 0 0 0 0 0 0 0 0 0 0 0 0 0 0 0 0 0 0 0 0 0 0 0 0 0 0 0 0 0 0 0 0 0 0 0 0 0 0 0 0 0 0 0 0 0 0 0 0 0 0 0 0 0 0 0 0 0 0 0 0 0 0 0 0 0 0 0 0 0 0 0 0 0 0 0 0 0 0 0 0 0 0 0 0 0 0 0 0 0 0 0 0 0 0 0 0 0 0 0 0 0 0 0 0 0 0 0 0 0 0 0 0 0 0 0 0 0 0 0 0 0 0 0 0 0 0 0 0 0 0 0 0 0 0 0 0 0 0 0 0 0 0 0 0 0 0 0 0 0 0 0 0 0 0 0 0 0 0 0 0 0 0 0 0 0 0 0 0 0 0 0 0 0 0 0 0 0 0 0 0 0 0 0 0 0 0 0 0 0 0 0 0 0 0 0 0 0 0 0 0 0 0 0 0 0 0 0 0 0 0 0 0 0 0 0 0 0 0 0 0 0 0 0 0 0 0 0 0 0 0 0 0 0 0 0 0 0 0 0 0 0 0 0 0 0 0 0 0 0 0 0 0 0 0 0 0 0 0 0 0 0 0 0 0 0 0 0 0 0 0 0 0 0 0 0 0 0 0 0 0 0 0 0 0 0 0 0 0 0 0 0 0 0 0 0 0 0 0 0 0 0 0 0 0 0 0 0 0 0 0 0 0 0 0 0 0 0 0 0 0 0 0 0 0 0 0 0 0 0 0 0 0 0 0 0 0 0 0 0 0 0 0 0 0 0 0 0 0 0 0 0 0 0 0 0 0 0 0 0 0 0 0 0 0 0 0 0 0 0 0 0 0 0 0 0 0 0 0 0 0 0 0 0 0 0 0 0 0 0 0 0 0 0 0 0 0 0 0 0 0 0 0 0 0 0 0 0 0 0 0 0 0 0 0 0 0 0 0 0 0 0 0 0 0 0 0 0 0 0 0 0 0 0 0 0 0 0 0 0 0 0 0 0 0 0 0 0 0 0 0 0 0 0 0 0 0 0 0 0 0 0 0 0 0 0 0 0 0 0 0 0 0 0 0 0 0 0 0 0 0 0 0 0 0 0 0 0 0 0 0 0 0 0 0 0 0 0 0 0 0 0 0 0 0 0 0 0 0 0 0 0 0 0 0 0 0 0 0 0 0 0 0 0 0 0 0 0 0 0 0 0 0 0 0 0 0 0 0 0 0 0 0 0 0 0 0 0 0 0 0 0 0 0 0 0 0 0 0 0 0 0 0 0 0 0 0 0 0 0 0 0 0 0 0 0 0 0 0 0 0 0 0 0 0 0 0 0 0 0 0 0 0 0 0 0 0 0 0 0 0 0 0 0 0 0 0 0 0 0 0 0 0 0 0 0 0 0 0 0 0 0 0 0 0 0 0 0 0 0 0 0 0 0 0 0 0 0 0 0 0 0 0 0 0 0 0 0 0 0 0 0 0 0 0 0 0 0 0 0 0 0 0 0 0 0 0 0 0 0 0 0 0 0 0 0 0 0 0 0 0 0 0 0 0 0 0 0 0 0 0 0 0 0 0 0 0 0 ];
Traffic[1]class1Average hops = 1 (1672222 samples)
traffic_manager/hop_stats_freq = [ 0 1672222 0 0 0 0 0 0 0 0 0 0 0 0 0 0 0 0 0 0 ];
----------------------------END-of-Interconnect-DETAILS-------------------------

gpgpu_simulation_time = 0 days, 16 hrs, 26 min, 37 sec (59197 sec)
gpgpu_simulation_rate = 453967 (inst/sec)
gpgpu_simulation_rate = 686 (cycle/sec)
Finished CUDA kernel calls                        
computing extra atoms on CPU


