GPGPU-Sim PTX: pushing kernel '_Z20Convolution2D_kernelPfS_' to stream 0, gridDim= (4096,1,1) blockDim = (1024,1,1) 
gpu_sim_cycle = 1046939
gpu_ipc =     248.0769
total_dl1_misses=405111
total_dl1_accesses=1951884
total_dl1_miss_rate= 0.207549
gpgpu_stall_shd_mem[gl_mem][coal_stall] = 1346079
L2 Cache Total Miss Rate = 0.489
