

        *** GPGPU-Sim Simulator Version 3.2.1  [build 15629] ***


               1=functional simulation only, 0=detailed performance simulator)
GPGPU-Sim: Configuration options:

-network_mode                           1 # Interconnection network mode
-inter_config_file   config_fermi_islip.icnt # Interconnection network config file
-gpgpu_ptx_use_cuobjdump                    1 # Use cuobjdump to extract ptx and sass from binaries
-gpgpu_experimental_lib_support                    0 # Try to extract code from cuda libraries [Broken because of unknown cudaGetExportTable]
-gpgpu_ptx_convert_to_ptxplus                    0 # Convert SASS (native ISA) to ptxplus and run ptxplus
-gpgpu_ptx_force_max_capability                   20 # Force maximum compute capability
-gpgpu_ptx_inst_debug_to_file                    0 # Dump executed instructions' debug information to file
-gpgpu_ptx_inst_debug_file       inst_debug.txt # Executed instructions' debug output file
-gpgpu_ptx_inst_debug_thread_uid                    1 # Thread UID for executed instructions' debug output
-gpgpu_simd_model                       1 # 1 = post-dominator
-gpgpu_shader_core_pipeline              1536:32 # shader core pipeline config, i.e., {<nthread>:<warpsize>}
-gpgpu_tex_cache:l1  4:128:24,L:R:m:N,F:128:4,128:2 # per-shader L1 texture cache  (READ-ONLY) config  {<nsets>:<bsize>:<assoc>,<rep>:<wr>:<alloc>:<wr_alloc>,<mshr>:<N>:<merge>,<mq>:<rf>}
-gpgpu_const_cache:l1 64:64:2,L:R:f:N,A:2:32,4 # per-shader L1 constant memory cache  (READ-ONLY) config  {<nsets>:<bsize>:<assoc>,<rep>:<wr>:<alloc>:<wr_alloc>,<mshr>:<N>:<merge>,<mq>} 
-gpgpu_cache:il1     4:128:4,L:R:f:N,A:2:32,4 # shader L1 instruction cache config  {<nsets>:<bsize>:<assoc>,<rep>:<wr>:<alloc>:<wr_alloc>,<mshr>:<N>:<merge>,<mq>} 
-gpgpu_cache:dl1     32:128:4,L:L:m:N,A:32:8,8 # per-shader L1 data cache config  {<nsets>:<bsize>:<assoc>,<rep>:<wr>:<alloc>:<wr_alloc>,<mshr>:<N>:<merge>,<mq> | none}
-gpgpu_perfect_mem                      0 # enable perfect memory mode (no cache miss)
-n_regfile_gating_group                    4 # group of lanes that should be read/written together)
-gpgpu_clock_gated_reg_file                    0 # enable clock gated reg file for power calculations
-gpgpu_clock_gated_lanes                    0 # enable clock gated lanes for power calculations
-gpgpu_shader_registers                32768 # Number of registers per shader core. Limits number of concurrent CTAs. (default 8192)
-gpgpu_shader_cta                       8 # Maximum number of concurrent CTAs in shader (default 8)
-gpgpu_n_clusters                      14 # number of processing clusters
-gpgpu_n_cores_per_cluster                    1 # number of simd cores per cluster
-gpgpu_n_cluster_ejection_buffer_size                    8 # number of packets in ejection buffer
-gpgpu_n_ldst_response_buffer_size                    2 # number of response packets in ld/st unit ejection buffer
-gpgpu_shmem_size                   16384 # Size of shared memory per shader core (default 16kB)
-gpgpu_shmem_num_banks                   32 # Number of banks in the shared memory in each shader core (default 16)
-gpgpu_shmem_limited_broadcast                    0 # Limit shared memory to do one broadcast per cycle (default on)
-gpgpu_shmem_warp_parts                    1 # Number of portions a warp is divided into for shared memory bank conflict check 
-gpgpu_warpdistro_shader                   -1 # Specify which shader core to collect the warp size distribution from
-gpgpu_warp_issue_shader                    0 # Specify which shader core to collect the warp issue distribution from
-gpgpu_local_mem_map                    1 # Mapping from local memory space address to simulated GPU physical address space (default = enabled)
-gpgpu_num_reg_banks                   16 # Number of register banks (default = 8)
-gpgpu_reg_bank_use_warp_id                    0 # Use warp ID in mapping registers to banks (default = off)
-gpgpu_operand_collector_num_units_sp                    6 # number of collector units (default = 4)
-gpgpu_operand_collector_num_units_sfu                    8 # number of collector units (default = 4)
-gpgpu_operand_collector_num_units_mem                    2 # number of collector units (default = 2)
-gpgpu_operand_collector_num_units_gen                    0 # number of collector units (default = 0)
-gpgpu_operand_collector_num_in_ports_sp                    2 # number of collector unit in ports (default = 1)
-gpgpu_operand_collector_num_in_ports_sfu                    1 # number of collector unit in ports (default = 1)
-gpgpu_operand_collector_num_in_ports_mem                    1 # number of collector unit in ports (default = 1)
-gpgpu_operand_collector_num_in_ports_gen                    0 # number of collector unit in ports (default = 0)
-gpgpu_operand_collector_num_out_ports_sp                    2 # number of collector unit in ports (default = 1)
-gpgpu_operand_collector_num_out_ports_sfu                    1 # number of collector unit in ports (default = 1)
-gpgpu_operand_collector_num_out_ports_mem                    1 # number of collector unit in ports (default = 1)
-gpgpu_operand_collector_num_out_ports_gen                    0 # number of collector unit in ports (default = 0)
-gpgpu_coalesce_arch                   13 # Coalescing arch (default = 13, anything else is off for now)
-gpgpu_num_sched_per_core                    2 # Number of warp schedulers per core
-gpgpu_max_insn_issue_per_warp                    1 # Max number of instructions that can be issued per warp in one cycle by scheduler
-gpgpu_simt_core_sim_order                    1 # Select the simulation order of cores in a cluster (0=Fix, 1=Round-Robin)
-gpgpu_pipeline_widths        2,1,1,2,1,1,2 # Pipeline widths ID_OC_SP,ID_OC_SFU,ID_OC_MEM,OC_EX_SP,OC_EX_SFU,OC_EX_MEM,EX_WB
-gpgpu_num_sp_units                     2 # Number of SP units (default=1)
-gpgpu_num_sfu_units                    1 # Number of SF units (default=1)
-gpgpu_num_mem_units                    1 # Number if ldst units (default=1) WARNING: not hooked up to anything
-gpgpu_scheduler                      lrr # Scheduler configuration: < lrr | gto | two_level_active > If two_level_active:<num_active_warps>:<inner_prioritization>:<outer_prioritization>For complete list of prioritization values see shader.h enum scheduler_prioritization_typeDefault: gto
-gpgpu_dram_scheduler                    1 # 0 = fifo, 1 = FR-FCFS (defaul)
-gpgpu_dram_partition_queues              8:8:8:8 # i2$:$2d:d2$:$2i
-l2_ideal                               0 # Use a ideal L2 cache that always hit
-gpgpu_cache:dl2     64:128:16,L:B:m:W,A:32:4,4 # unified banked L2 data cache config  {<nsets>:<bsize>:<assoc>,<rep>:<wr>:<alloc>:<wr_alloc>,<mshr>:<N>:<merge>,<mq>}
-gpgpu_cache:dl2_texture_only                    0 # L2 cache used for texture only
-gpgpu_n_mem                            5 # number of memory modules (e.g. memory controllers) in gpu
-gpgpu_n_mem_per_ctrlr                    2 # number of memory chips per memory controller
-gpgpu_memlatency_stat                   14 # track and display latency statistics 0x2 enables MC, 0x4 enables queue logs
-gpgpu_frfcfs_dram_sched_queue_size                   16 # 0 = unlimited (default); # entries per chip
-gpgpu_dram_return_queue_size                    0 # 0 = unlimited (default); # entries per chip
-gpgpu_dram_buswidth                    4 # default = 4 bytes (8 bytes per cycle at DDR)
-gpgpu_dram_burst_length                    8 # Burst length of each DRAM request (default = 4 data bus cycle)
-dram_data_command_freq_ratio                    4 # Frequency ratio between DRAM data bus and command bus (default = 2 times, i.e. DDR)
-gpgpu_dram_timing_opt nbk=16:CCD=2:RRD=6:RCD=12:RAS=28:RP=12:RC=40: CL=12:WL=4:CDLR=5:WR=12:nbkgrp=4:CCDL=3:RTPL=2 # DRAM timing parameters = {nbk:tCCD:tRRD:tRCD:tRAS:tRP:tRC:CL:WL:tCDLR:tWR:nbkgrp:tCCDL:tRTPL}
-rop_latency                          120 # ROP queue latency (default 85)
-dram_latency                         100 # DRAM latency (default 30)
-gpgpu_mem_addr_mapping dramid@8;00000000.00000000.00000000.00000000.0000RRRR.RRRRRRRR.BBBBCCCC.CCSSSSSS # mapping memory address to dram model {dramid@<start bit>;<memory address map>}
-gpgpu_mem_addr_test                    0 # run sweep test to check address mapping for aliased address
-gpgpu_mem_address_mask                    1 # 0 = old addressing mask, 1 = new addressing mask, 2 = new add. mask + flipped bank sel and chip sel bits
-gpuwattch_xml_file         gpuwattch.xml # GPUWattch XML file
-power_simulation_enabled                    1 # Turn on power simulator (1=On, 0=Off)
-power_per_cycle_dump                    0 # Dump detailed power output each cycle
-power_trace_enabled                    1 # produce a file for the power trace (1=On, 0=Off)
-power_trace_zlevel                     6 # Compression level of the power trace output log (0=no comp, 9=highest)
-steady_power_levels_enabled                    0 # produce a file for the steady power levels (1=On, 0=Off)
-steady_state_definition                  8:4 # allowed deviation:number of samples
-gpgpu_max_cycle                        0 # terminates gpu simulation early (0 = no limit)
-gpgpu_max_insn                         0 # terminates gpu simulation early (0 = no limit)
-gpgpu_max_cta                          0 # terminates gpu simulation early (0 = no limit)
-gpgpu_runtime_stat                   500 # display runtime statistics such as dram utilization {<freq>:<flag>}
-gpgpu_flush_l1_cache                    0 # Flush L1 cache at the end of each kernel call
-gpgpu_flush_l2_cache                    0 # Flush L2 cache at the end of each kernel call
-gpgpu_deadlock_detect                    1 # Stop the simulation at deadlock (1=on (default), 0=off)
-gpgpu_ptx_instruction_classification                    0 # if enabled will classify ptx instruction types per kernel (Max 255 kernels now)
-gpgpu_ptx_sim_mode                     0 # Select between Performance (default) or Functional simulation (1)
-gpgpu_clock_domains 600.0:1200.0:600.0:600.0 # Clock Domain Frequencies in MhZ {<Core Clock>:<ICNT Clock>:<L2 Clock>:<DRAM Clock>}
-gpgpu_max_concurrent_kernel                    8 # maximum kernels that can run concurrently on GPU
-gpgpu_cflog_interval                    0 # Interval between each snapshot in control flow logger
-visualizer_enabled                     0 # Turn on visualizer output (1=On, 0=Off)
-visualizer_outputfile                 NULL # Specifies the output log file for visualizer
-visualizer_zlevel                      6 # Compression level of the visualizer output log (0=no comp, 9=highest)
-trace_enabled                          0 # Turn on traces
-trace_components                    none # comma seperated list of traces to enable. Complete list found in trace_streams.tup. Default none
-trace_sampling_core                    0 # The core which is printed using CORE_DPRINTF. Default 0
-enable_ptx_file_line_stats                    1 # Turn on PTX source line statistic profiling. (1 = On)
-ptx_line_stats_filename gpgpu_inst_stats.txt # Output file for PTX source line statistics.
-save_embedded_ptx                      0 # saves ptx files embedded in binary as <n>.ptx
-keep                                   0 # keep intermediate files created by GPGPU-Sim when interfacing with external programs
-gpgpu_ptx_save_converted_ptxplus                    0 # Saved converted ptxplus to a file
-ptx_opcode_latency_int         4,13,4,5,145 # Opcode latencies for integers <ADD,MAX,MUL,MAD,DIV>Default 1,1,19,25,145
-ptx_opcode_latency_fp          4,13,4,5,39 # Opcode latencies for single precision floating points <ADD,MAX,MUL,MAD,DIV>Default 1,1,1,1,30
-ptx_opcode_latency_dp         8,19,8,8,330 # Opcode latencies for double precision floating points <ADD,MAX,MUL,MAD,DIV>Default 8,8,8,8,335
-ptx_opcode_initiation_int            1,2,2,1,8 # Opcode initiation intervals for integers <ADD,MAX,MUL,MAD,DIV>Default 1,1,4,4,32
-ptx_opcode_initiation_fp            1,2,1,1,4 # Opcode initiation intervals for single precision floating points <ADD,MAX,MUL,MAD,DIV>Defaultf799c53a0e85ffdbd723524fa0702785  /tmp/tmp.JzHcyvIyTD/bicg__SIZE1_1
 1,1,1,1,5
-ptx_opcode_initiation_dp         8,16,8,8,130 # Opcode initiation intervals for double precision floating points <ADD,MAX,MUL,MAD,DIV>Default 8,8,8,8,130
DRAM Timing Options:
nbk                                    16 # number of banks
CCD                                     2 # column to column delay
RRD                                     6 # minimal delay between activation of rows in different banks
RCD                                    12 # row to column delay
RAS                                    28 # time needed to activate row
RP                                     12 # time needed to precharge (deactivate) row
RC                                     40 # row cycle time
CDLR                                    5 # switching from write to read (changes tWTR)
WR                                     12 # last data-in to row precharge
CL                                     12 # CAS latency
WL                                      4 # Write latency
nbkgrp                                  4 # number of bank groups
CCDL                                    3 # column to column delay between accesses to different bank groups
RTPL                                    2 # read to precharge delay between accesses to different bank groups
addr_dec_mask[CHIP]  = 0000000000000000 	high:64 low:0
addr_dec_mask[BK]    = 000000000000f000 	high:16 low:12
addr_dec_mask[ROW]   = 000000000fff0000 	high:28 low:16
addr_dec_mask[COL]   = 0000000000000fff 	high:12 low:0
addr_dec_mask[BURST] = 000000000000003f 	high:6 low:0
*** Initializing Memory Statistics ***
self exe links to: /tmp/tmp.JzHcyvIyTD/bicg__SIZE1_1
Running md5sum using "md5sum /tmp/tmp.JzHcyvIyTD/bicg__SIZE1_1 "
Running cuobjdump using "$CUDA_INSTALL_PATH/bin/cuobjdump -ptx -elf -sass /tmp/tmp.JzHcyvIyTD/bicg__SIZE1_1 > _cuobjdump_complete_output_l74noa"
Parsing file _cuobjdump_complete_output_l74noa
######### cuobjdump parser ########
## Adding new section PTX
Adding ptx filename: _cuobjdump_1.ptx
Adding arch: sm_13
Adding identifier: benchmarks/bicg/bicg.cu
## Adding new section ELF
Adding arch: sm_13
Adding identifier: benchmarks/bicg/bicg.cu
Done parsing!!!
Adding _cuobjdump_1.ptx with cubin handle 1
Running: cat _ptx_yjquYs | sed 's/.version 1.5/.version 1.4/' | sed 's/, texmode_independent//' | sed 's/\(\.extern \.const\[1\] .b8 \w\+\)\[\]/\1\[1\]/' | sed 's/const\[.\]/const\[0\]/g' > _ptx2_mmsByL

kernel '_Z12bicg_kernel1PfS_S_' transfer to GPU hardware scheduler
kernel_name = _Z12bicg_kernel1PfS_S_ 
kernel_launch_uid = 1 
gpu_sim_cycle = 298834
gpu_sim_insn = 8407040
gpu_ipc =      28.1328
gpu_tot_sim_cycle = 298834
gpu_tot_sim_insn = 8407040
gpu_tot_ipc =      28.1328
gpu_tot_issued_cta = 0
gpu_stall_dramfull = 0
gpu_stall_icnt2sh    = 1
gpu_total_sim_rate=289897
Cache L1D_000:	Size = 16384 B (32 Set x 4-way x 128 byte line)
		Access = 0, Miss = 0 (-nan), PendingHit = 0 (-nan)
Cache L1D_001:	Size = 16384 B (32 Set x 4-way x 128 byte line)
		Access = 65536, Miss = 32800 (0.5), PendingHit = 224 (0.00342)
Cache L1D_002:	Size = 16384 B (32 Set x 4-way x 128 byte line)
		Access = 0, Miss = 0 (-nan), PendingHit = 0 (-nan)
Cache L1D_003:	Size = 16384 B (32 Set x 4-way x 128 byte line)
		Access = 0, Miss = 0 (-nan), PendingHit = 0 (-nan)
Cache L1D_004:	Size = 16384 B (32 Set x 4-way x 128 byte line)
		Access = 0, Miss = 0 (-nan), PendingHit = 0 (-nan)
Cache L1D_005:	Size = 16384 B (32 Set x 4-way x 128 byte line)
		Access = 0, Miss = 0 (-nan), PendingHit = 0 (-nan)
Cache L1D_006:	Size = 16384 B (32 Set x 4-way x 128 byte line)
		Access = 0, Miss = 0 (-nan), PendingHit = 0 (-nan)
Cache L1D_007:	Size = 16384 B (32 Set x 4-way x 128 byte line)
		Access = 0, Miss = 0 (-nan), PendingHit = 0 (-nan)
Cache L1D_008:	Size = 16384 B (32 Set x 4-way x 128 byte line)
		Access = 0, Miss = 0 (-nan), PendingHit = 0 (-nan)
Cache L1D_009:	Size = 16384 B (32 Set x 4-way x 128 byte line)
		Access = 0, Miss = 0 (-nan), PendingHit = 0 (-nan)
Cache L1D_010:	Size = 16384 B (32 Set x 4-way x 128 byte line)
		Access = 0, Miss = 0 (-nan), PendingHit = 0 (-nan)
Cache L1D_011:	Size = 16384 B (32 Set x 4-way x 128 byte line)
		Access = 0, Miss = 0 (-nan), PendingHit = 0 (-nan)
Cache L1D_012:	Size = 16384 B (32 Set x 4-way x 128 byte line)
		Access = 0, Miss = 0 (-nan), PendingHit = 0 (-nan)
Cache L1D_013:	Size = 16384 B (32 Set x 4-way x 128 byte line)
		Access = 0, Miss = 0 (-nan), PendingHit = 0 (-nan)
total_dl1_misses=32800
total_dl1_accesses=65536
total_dl1_miss_rate= 0.500488
Shader 0 dynamic_warp_id issue ditsribution:
dynamic_warp_id:

distro:

gpgpu_n_tot_thrd_icount = 8409088
gpgpu_n_tot_w_icount = 262784
gpgpu_n_icache_hits = 164128
gpgpu_n_icache_misses = 64
gpgpu_n_l1dcache_read_hits = 32512
gpgpu_n_l1dcache_read_misses = 33024
gpgpu_n_l1dcache_write_accesses = 32
gpgpu_n_l1dcache_wirte_misses = 32
gpgpu_n_tcache_hits = 0
gpgpu_n_tcache_misses = 0
gpgpu_n_ccache_hits = 64
gpgpu_n_ccache_misses = 32
gpgpu_n_stall_shd_mem = 6418
gpgpu_n_mem_read_local = 0
gpgpu_n_mem_write_local = 0
gpgpu_n_mem_read_global = 32800
gpgpu_n_mem_write_global = 32
gpgpu_n_mem_texture = 0
gpgpu_n_mem_const = 1
gpgpu_n_load_insn  = 4194304
gpgpu_n_store_insn = 2048
gpgpu_n_shmem_insn = 0
gpgpu_n_tex_insn = 0
gpgpu_n_const_mem_insn = 0
gpgpu_n_param_mem_insn = 6144
gpgpu_n_shmem_bkconflict = 0
gpgpu_n_cache_bkconflict = 0
gpgpu_n_intrawarp_mshr_merge = 0
gpgpu_n_cmem_portconflict = 177
gpgpu_stall_shd_mem[c_mem][bk_conf] = 177
gpgpu_stall_shd_mem[c_mem][mshr_rc] = 0
gpgpu_stall_shd_mem[c_mem][icnt_rc] = 0
gpgpu_stall_shd_mem[t_mem][mshr_rc] = 0
gpgpu_stall_shd_mem[t_mem][icnt_rc] = 0
gpgpu_stall_shd_mem[s_mem][bk_conf] = 0
gpgpu_stall_shd_mem[gl_mem][bk_conf] = 0
gpgpu_stall_shd_mem[gl_mem][coal_stall] = 6241
gpgpu_stall_shd_mem[g_mem_ld][mshr_rc] = 0
gpgpu_stall_shd_mem[g_mem_ld][icnt_rc] = 0
gpgpu_stall_shd_mem[g_mem_ld][wb_icnt_rc] = 0
gpgpu_stall_shd_mem[g_mem_ld][wb_rsrv_fail] = 0
gpgpu_stall_shd_mem[g_mem_st][mshr_rc] = 0
gpgpu_stall_shd_mem[g_mem_st][icnt_rc] = 0
gpgpu_stall_shd_mem[g_mem_st][wb_icnt_rc] = 0
gpgpu_stall_shd_mem[g_mem_st][wb_rsrv_fail] = 0
gpgpu_stall_shd_mem[l_mem_ld][mshr_rc] = 0
gpgpu_stall_shd_mem[l_mem_ld][icnt_rc] = 0
gpgpu_stall_shd_mem[l_mem_ld][wb_icnt_rc] = 0
gpgpu_stall_shd_mem[l_mem_ld][wb_rsrv_fail] = 0
gpgpu_stall_shd_mem[l_mem_st][mshr_rc] = 0
gpgpu_stall_shd_mem[l_mem_st][icnt_rc] = 0
gpgpu_stall_shd_mem[l_mem_ld][wb_icnt_rc] = 0
gpgpu_stall_shd_mem[l_mem_ld][wb_rsrv_fail] = 0
gpu_reg_bank_conflict_stalls = 0
Warp Occupancy Distribution:
Stall:11785	W0_Idle:1717	W0_Scoreboard:321408	W1:0	W2:0	W3:0	W4:0	W5:0	W6:0	W7:0	W8:0	W9:0	W10:0	W11:0	W12:0	W13:0	W14:0	W15:0	W16:0	W17:0	W18:0	W19:0	W20:0	W21:0	W22:0	W23:0	W24:0	W25:0	W26:0	W27:0	W28:0	W29:0	W30:0	W31:0	W32:262784
maxmrqlatency = 134 
maxdqlatency = 0 
maxmflatency = 368 
averagemflatency = 249 
max_icnt2mem_latency = 5 
max_icnt2sh_latency = 298833 
mrq_lat_table:28764 	1167 	852 	602 	1418 	38 	25 	1 	0 	0 	0 	0 	0 	0 	0 	0 	0 	0 	0 	0 	0 	0 	0 	0 	0 	0 	0 	0 	0 	0 	0 	0 	
dq_lat_table:0 	0 	0 	0 	0 	0 	0 	0 	0 	0 	0 	0 	0 	0 	0 	0 	0 	0 	0 	0 	0 	0 	0 	0 	0 	0 	0 	0 	0 	0 	0 	0 	
mf_lat_table:0 	0 	0 	0 	0 	0 	0 	29477 	3356 	0 	0 	0 	0 	0 	0 	0 	0 	0 	0 	0 	0 	0 	0 	0 	0 	0 	0 	0 	0 	0 	0 	0 	
icnt2mem_lat_table:2 	32801 	32 	0 	0 	0 	0 	0 	0 	0 	0 	0 	0 	0 	0 	0 	0 	0 	0 	0 	0 	0 	0 	0 	
icnt2sh_lat_table:0 	28921 	3430 	379 	71 	0 	0 	0 	0 	0 	0 	0 	0 	0 	0 	0 	0 	0 	32 	0 	0 	0 	0 	0 	
mf_lat_pw_table:0 	0 	0 	0 	0 	0 	0 	578 	18 	0 	0 	0 	0 	0 	0 	0 	0 	0 	0 	0 	0 	0 	0 	0 	0 	0 	0 	0 	0 	0 	0 	0 	
maximum concurrent accesses to same row:
dram[0]:        32        32        32        32        32        32        32        32        32        32        32        32        32        32        32        32 
dram[1]:        32        32        32        32        32        32        32        32        32        32        32        32        32        32        32        32 
dram[2]:        32        32        32        32        32        32        32        32        32        32        32        32        32        32        32        32 
dram[3]:        32        32        32        32        32        32        32        32        32        32        32        32        32        32        32        32 
dram[4]:        32        32        32        32        32        32        32        32        32        32        32        32        32        32        32        32 
maximum service time to same row:
dram[0]:     23397     23410     23422     23417     23376     23385     23338     23432     23424     23409     23345     23366     23388     23318     23341     23350 
dram[1]:     23338     23337     23353     23396     23396     23383     23373     23379     23409     23431     23347     23352     23366     23370     23399     23429 
dram[2]:     23319     23367     23390     23423     23324     23333     23343     23369     23356     23369     23351     23379     23392     23387     23316     23317 
dram[3]:     23394     23322     23337     23348     23358     23354     23343     23411     23431     23435     23344     23324     23335     23330     23360     23373 
dram[4]:     23443     23471     23478     23465     23374     23381     23378     23425     23422     23423     23367     23398     23410     23432     23456     23454 
average row accesses per activate:
dram[0]: 32.230770 32.000000 32.000000 32.000000 32.000000 32.000000 18.909090 32.000000 32.000000 30.461538 32.000000 32.000000 32.000000 32.000000 32.000000 32.000000 
dram[1]: 32.000000 32.000000 32.000000 32.000000 32.000000 32.000000 26.000000 32.000000 32.000000 30.461538 32.000000 32.000000 32.000000 32.000000 32.000000 32.000000 
dram[2]: 32.000000 32.000000 32.000000 32.000000 32.000000 32.000000 26.000000 32.000000 32.000000 30.461538 32.000000 32.000000 32.000000 32.000000 32.000000 32.000000 
dram[3]: 32.000000 32.000000 32.000000 32.000000 32.000000 32.000000 19.000000 32.000000 32.000000 30.615385 32.000000 32.000000 32.000000 32.000000 32.000000 32.000000 
dram[4]: 32.000000 32.000000 32.000000 32.000000 32.000000 32.000000 21.789474 32.000000 32.000000 30.615385 32.000000 32.000000 32.000000 32.000000 32.000000 32.000000 
average row locality = 32867/1060 = 31.006603
number of total memory accesses made:
dram[0]:         0         0         0         0         0         0         0         0         0         0         0         0         0         0         0         0 
dram[1]:         0         0         0         0         0         0         0         0         0         0         0         0         0         0         0         0 
dram[2]:         0         0         0         0         0         0         0         0         0         0         0         0         0         0         0         0 
dram[3]:         0         0         0         0         0         0         0         0         0         0         0         0         0         0         0         0 
dram[4]:         0         0         0         0         0         0         0         0         0         0         0         0         0         0         0         0 
total accesses: 0
min_bank_accesses = 0!
min_chip_accesses = 0!
number of total read accesses:
dram[0]:       419       416       416       416       416       416       410       384       384       396       416       416       416       416       416       416 
dram[1]:       416       416       416       416       416       416       410       384       384       396       416       416       416       416       416       416 
dram[2]:       416       416       416       416       416       416       410       384       384       396       416       416       416       416       416       416 
dram[3]:       416       416       416       416       416       416       410       384       384       398       416       416       416       416       416       416 
dram[4]:       416       416       416       416       416       416       408       384       384       398       416       416       416       416       416       416 
total reads: 32835
bank skew: 419/384 = 1.09
chip skew: 6569/6566 = 1.00
number of total write accesses:
dram[0]:         0         0         0         0         0         0         6         0         0         0         0         0         0         0         0         0 
dram[1]:         0         0         0         0         0         0         6         0         0         0         0         0         0         0         0         0 
dram[2]:         0         0         0         0         0         0         6         0         0         0         0         0         0         0         0         0 
dram[3]:         0         0         0         0         0         0         8         0         0         0         0         0         0         0         0         0 
dram[4]:         0         0         0         0         0         0         6         0         0         0         0         0         0         0         0         0 
total reads: 32
min_bank_accesses = 0!
chip skew: 8/6 = 1.33
average mf latency per bank:
dram[0]:        251       248       249       250       248       249       248       248       249       249       249       249       250       249       248       249
dram[1]:        251       248       248       251       249       249       247       249       249       250       249       249       249       249       249       249
dram[2]:        249       249       249       250       249       249       247       249       249       250       249       249       249       250       249       249
dram[3]:        250       249       249       250       249       249       247       249       249       251       249       249       250       250       249       249
dram[4]:        251       248       249       249       248       248       246       248       249       250       249       249       250       249       248       249
maximum mf latency per bank:
dram[0]:        301       274       273       274       272       272       313       272       272       274       272       272       277       279       272       273
dram[1]:        292       274       273       274       279       274       357       274       274       276       276       272       273       277       283       276
dram[2]:        273       275       276       273       273       276       328       273       274       282       276       274       274       277       276       274
dram[3]:        275       275       276       273       279       273       368       275       274       284       282       279       281       284       280       281
dram[4]:        293       274       273       274       275       273       332       273       271       274       273       282       273       272       274       273

Number of Memory Banks Accessed per Memory Operation per Warp (from 0):
0	0	0	0	0	0	0	0	0	0	0	0	0	0	0	0	0	0	0	0	0	0	0	0	0	0	0	0	0	0	0	0	0	0	0	0	0	0	0	0	0	0	0	0	0	0	0	0	0	0	0	0	0	0	0	0	0	0	0	0	0	0	0	0	0	0	0	0	0	0	0	0	0	0	0	0	0	0	0	0	
Average # of Memory Banks Accessed per Memory Operation per Warp=-nan

position of mrq chosen
0	0	0	0	0	0	0	0	0	0	0	0	0	0	0	0	

average position of mrq chosen = -nan
gpgpu_l2_write_miss = 0
gpgpu_l2_write_access = 0
gpgpu_l2_read_miss = 0
gpgpu_l2_read_access = 0
Cache L2_bank_000:
MSHR contents

DRAM[0]: 16 bks, busW=4 BL=8 CL=12, tRRD=2 tCCD=6, tRCD=12 tRAS=28 tRP=12 tRC=40
n_cmd=298834 n_nop=285268 n_act=216 n_pre=200 n_req=6575 n_rd=13138 n_write=12 bw_util=0.08801
n_activity=80519 dram_eff=0.3266
bk0: 838a 296889i bk1: 832a 297073i bk2: 832a 297100i bk3: 832a 297107i bk4: 832a 297044i bk5: 832a 297086i bk6: 820a 296992i bk7: 768a 297111i bk8: 768a 297108i bk9: 792a 297083i bk10: 832a 297065i bk11: 832a 297046i bk12: 832a 296972i bk13: 832a 296788i bk14: 832a 296713i bk15: 832a 292056i 
dram_util_bins: 0 0 0 0 0 0 0 0 0 0
dram_eff_bins: 0 0 0 0 0 0 0 0 0 0
mrqq: max=6 avg=0.0278817
Cache L2_bank_001:
MSHR contents

DRAM[1]: 16 bks, busW=4 BL=8 CL=12, tRRD=2 tCCD=6, tRCD=12 tRAS=28 tRP=12 tRC=40
n_cmd=298834 n_nop=285288 n_act=209 n_pre=193 n_req=6572 n_rd=13132 n_write=12 bw_util=0.08797
n_activity=79734 dram_eff=0.3297
bk0: 832a 296905i bk1: 832a 297139i bk2: 832a 297115i bk3: 832a 297085i bk4: 832a 297062i bk5: 832a 297072i bk6: 820a 297048i bk7: 768a 296998i bk8: 768a 297042i bk9: 792a 297081i bk10: 832a 297035i bk11: 832a 296942i bk12: 832a 296968i bk13: 832a 296928i bk14: 832a 296658i bk15: 832a 292327i 
dram_util_bins: 0 0 0 0 0 0 0 0 0 0
dram_eff_bins: 0 0 0 0 0 0 0 0 0 0
mrqq: max=9 avg=0.0276575
Cache L2_bank_002:
MSHR contents

DRAM[2]: 16 bks, busW=4 BL=8 CL=12, tRRD=2 tCCD=6, tRCD=12 tRAS=28 tRP=12 tRC=40
n_cmd=298834 n_nop=285288 n_act=209 n_pre=193 n_req=6572 n_rd=13132 n_write=12 bw_util=0.08797
n_activity=78981 dram_eff=0.3328
bk0: 832a 296910i bk1: 832a 297034i bk2: 832a 297079i bk3: 832a 297093i bk4: 832a 297073i bk5: 832a 297070i bk6: 820a 297073i bk7: 768a 297054i bk8: 768a 297025i bk9: 792a 297092i bk10: 832a 296998i bk11: 832a 297021i bk12: 832a 296959i bk13: 832a 296722i bk14: 832a 296598i bk15: 832a 292383i 
dram_util_bins: 0 0 0 0 0 0 0 0 0 0
dram_eff_bins: 0 0 0 0 0 0 0 0 0 0
mrqq: max=7 avg=0.0313284
Cache L2_bank_003:
MSHR contents
MSHR: tag=0x80401080, atomic=0 1 entries : 0x2b1b047cc540 :  mf: uid=236306, sid01:w01, part=3, addr=0x80401080, load , size=128, unknown  status = IN_PARTITION_DRAM (298833), 

DRAM[3]: 16 bks, busW=4 BL=8 CL=12, tRRD=2 tCCD=6, tRCD=12 tRAS=28 tRP=12 tRC=40
n_cmd=298834 n_nop=285270 n_act=215 n_pre=199 n_req=6576 n_rd=13134 n_write=16 bw_util=0.08801
n_activity=79550 dram_eff=0.3306
bk0: 832a 297046i bk1: 832a 297074i bk2: 832a 297092i bk3: 832a 297113i bk4: 832a 297070i bk5: 832a 297113i bk6: 818a 297059i bk7: 768a 297015i bk8: 768a 297040i bk9: 796a 297047i bk10: 832a 296888i bk11: 832a 296906i bk12: 832a 297071i bk13: 832a 296566i bk14: 832a 296548i bk15: 832a 292294i 
dram_util_bins: 0 0 0 0 0 0 0 0 0 0
dram_eff_bins: 0 0 0 0 0 0 0 0 0 0
mrqq: max=10 avg=0.0348421
Cache L2_bank_004:
MSHR contents

DRAM[4]: 16 bks, busW=4 BL=8 CL=12, tRRD=2 tCCD=6, tRCD=12 tRAS=28 tRP=12 tRC=40
n_cmd=298834 n_nop=285282 n_act=212 n_pre=196 n_req=6572 n_rd=13132 n_write=12 bw_util=0.08797
n_activity=80749 dram_eff=0.3256
bk0: 832a 296946i bk1: 832a 297072i bk2: 832a 297069i bk3: 832a 297120i bk4: 832a 297098i bk5: 832a 297046i bk6: 816a 297074i bk7: 768a 297040i bk8: 768a 297023i bk9: 796a 297039i bk10: 832a 297040i bk11: 832a 297005i bk12: 832a 297036i bk13: 832a 296930i bk14: 832a 296705i bk15: 832a 292231i 
dram_util_bins: 0 0 0 0 0 0 0 0 0 0
dram_eff_bins: 0 0 0 0 0 0 0 0 0 0
mrqq: max=7 avg=0.0254824
Cache L2_bank_000:	Size = 131072 B (64 Set x 16-way x 128 byte line)
		Access = 6569, Miss = 6569 (1), PendingHit = 0 (0)
Cache L2_bank_001:	Size = 131072 B (64 Set x 16-way x 128 byte line)
		Access = 6566, Miss = 6566 (1), PendingHit = 0 (0)
Cache L2_bank_002:	Size = 131072 B (64 Set x 16-way x 128 byte line)
		Access = 6566, Miss = 6566 (1), PendingHit = 0 (0)
Cache L2_bank_003:	Size = 131072 B (64 Set x 16-way x 128 byte line)
		Access = 6568, Miss = 6568 (1), PendingHit = 0 (0)
Cache L2_bank_004:	Size = 131072 B (64 Set x 16-way x 128 byte line)
		Access = 6566, Miss = 6566 (1), PendingHit = 0 (0)
L2 Cache Total Miss Rate = 1.000

icnt_total_pkts_mem_to_simt=164045
icnt_total_pkts_simt_to_mem=32963

LD_mem_lat_dist  0 0 0 0 0 0 0 0 0 0 0 0 0 0 0 0 0 0 0 0 0 0 0 0 0 0 0
ST_mem_lat_dist  0 0 0 0 0 0 0 0 0 0 0 0 0 0 0 0 0 0 0 0 0 0 0 0 0 0 0
Traffic 0 Stat
%=================================
% Average latency = 1.00417
% Accepted packets = 0 at node 0 (avg = 0.00239795)
lat(1) = 1.00417;
thru(1,:) = [ 0 0 0 0 0 0 0 0 0 0 0 0 0 0 0.0110312 0.0110262 0.0110262 0.0110429 0.0110262 0 0 0 0 ];
% latency change    = 1
% throughput change = 1
Traffic 1 Stat
%=================================
% Average latency = 5.68479
% Accepted packets = 0 at node 0 (avg = 0.0119337)
lat(2) = 5.68479;
thru(2,:) = [ 0 0.274476 0 0 0 0 0 0 0 0 0 0 0 0 0 0 0 0 0 0 0 0 0 ];
% latency change    = 0.823358
% throughput change = 0.799061
----------------------------Interconnect-DETAILS---------------------------------=======Traffic[0]class0 ======
Traffic[0]class0Overall average latency = 1.00417 (1 samples)
Traffic[0]class0Overall average accepted rate = 0.00239795 (1 samples)
Traffic[0]class0Overall min accepted rate = 0 (1 samples)
traffic_manager/latency_stat_0_freq = [ 0 32803 0 0 0 28 1 1 2 0 0 0 0 0 0 0 0 0 0 0 0 0 0 0 0 0 0 0 0 0 0 0 0 0 0 0 0 0 0 0 0 0 0 0 0 0 0 0 0 0 0 0 0 0 0 0 0 0 0 0 0 0 0 0 0 0 0 0 0 0 0 0 0 0 0 0 0 0 0 0 0 0 0 0 0 0 0 0 0 0 0 0 0 0 0 0 0 0 0 0 0 0 0 0 0 0 0 0 0 0 0 0 0 0 0 0 0 0 0 0 0 0 0 0 0 0 0 0 0 0 0 0 0 0 0 0 0 0 0 0 0 0 0 0 0 0 0 0 0 0 0 0 0 0 0 0 0 0 0 0 0 0 0 0 0 0 0 0 0 0 0 0 0 0 0 0 0 0 0 0 0 0 0 0 0 0 0 0 0 0 0 0 0 0 0 0 0 0 0 0 0 0 0 0 0 0 0 0 0 0 0 0 0 0 0 0 0 0 0 0 0 0 0 0 0 0 0 0 0 0 0 0 0 0 0 0 0 0 0 0 0 0 0 0 0 0 0 0 0 0 0 0 0 0 0 0 0 0 0 0 0 0 0 0 0 0 0 0 0 0 0 0 0 0 0 0 0 0 0 0 0 0 0 0 0 0 0 0 0 0 0 0 0 0 0 0 0 0 0 0 0 0 0 0 0 0 0 0 0 0 0 0 0 0 0 0 0 0 0 0 0 0 0 0 0 0 0 0 0 0 0 0 0 0 0 0 0 0 0 0 0 0 0 0 0 0 0 0 0 0 0 0 0 0 0 0 0 0 0 0 0 0 0 0 0 0 0 0 0 0 0 0 0 0 0 0 0 0 0 0 0 0 0 0 0 0 0 0 0 0 0 0 0 0 0 0 0 0 0 0 0 0 0 0 0 0 0 0 0 0 0 0 0 0 0 0 0 0 0 0 0 0 0 0 0 0 0 0 0 0 0 0 0 0 0 0 0 0 0 0 0 0 0 0 0 0 0 0 0 0 0 0 0 0 0 0 0 0 0 0 0 0 0 0 0 0 0 0 0 0 0 0 0 0 0 0 0 0 0 0 0 0 0 0 0 0 0 0 0 0 0 0 0 0 0 0 0 0 0 0 0 0 0 0 0 0 0 0 0 0 0 0 0 0 0 0 0 0 0 0 0 0 0 0 0 0 0 0 0 0 0 0 0 0 0 0 0 0 0 0 0 0 0 0 0 0 0 0 0 0 0 0 0 0 0 0 0 0 0 0 0 0 0 0 0 0 0 0 0 0 0 0 0 0 0 0 0 0 0 0 0 0 0 0 0 0 0 0 0 0 0 0 0 0 0 0 0 0 0 0 0 0 0 0 0 0 0 0 0 0 0 0 0 0 0 0 0 0 0 0 0 0 0 0 0 0 0 0 0 0 0 0 0 0 0 0 0 0 0 0 0 0 0 0 0 0 0 0 0 0 0 0 0 0 0 0 0 0 0 0 0 0 0 0 0 0 0 0 0 0 0 0 0 0 0 0 0 0 0 0 0 0 0 0 0 0 0 0 0 0 0 0 0 0 0 0 0 0 0 0 0 0 0 0 0 0 0 0 0 0 0 0 0 0 0 0 0 0 0 0 0 0 0 0 0 0 0 0 0 0 0 0 0 0 0 0 0 0 0 0 0 0 0 0 0 0 0 0 0 0 0 0 0 0 0 0 0 0 0 0 0 0 0 0 0 0 0 0 0 0 0 0 0 0 0 0 0 0 0 0 0 0 0 0 0 0 0 0 0 0 0 0 0 0 0 0 0 0 0 0 0 0 0 0 0 0 0 0 0 0 0 0 0 0 0 0 0 0 0 0 0 0 0 0 0 0 0 0 0 0 0 0 0 0 0 0 0 0 0 0 0 0 0 0 0 0 0 0 0 0 0 0 0 0 0 0 0 0 0 0 0 0 0 0 0 0 0 0 0 0 0 0 0 0 0 0 0 0 0 0 0 0 0 0 0 0 0 0 0 0 0 0 0 0 0 0 0 0 0 0 0 0 0 0 0 0 0 0 0 0 0 0 0 0 0 0 0 0 0 0 0 0 0 0 0 0 0 0 0 0 0 0 0 0 0 0 0 0 0 0 0 0 0 0 0 0 0 0 0 0 0 0 0 0 0 0 0 0 0 0 0 0 0 0 0 0 0 0 0 0 0 0 0 0 0 0 0 0 0 0 0 0 0 0 0 0 0 0 0 0 0 0 0 0 0 0 0 0 0 0 ];
Traffic[0]class1Average hops = 1 (32835 samples)
traffic_manager/hop_stats_freq = [ 0 32835 0 0 0 0 0 0 0 0 0 0 0 0 0 0 0 0 0 0 ];
=======Traffic[1]class0 ======
Traffic[1]class0Overall average latency = 5.68479 (1 samples)
Traffic[1]class0Overall average accepted rate = 0.0119337 (1 samples)
Traffic[1]class0Overall min accepted rate = 0 (1 samples)
traffic_manager/latency_stat_0_freq = [ 0 30 2 1 0 27028 1894 192 2338 205 308 179 44 101 63 34 61 28 26 44 22 20 23 12 19 17 13 21 14 11 14 8 6 11 7 8 2 3 4 1 2 4 1 2 3 0 3 2 1 2 0 0 1 0 0 0 0 0 0 0 0 0 0 0 0 0 0 0 0 0 0 0 0 0 0 0 0 0 0 0 0 0 0 0 0 0 0 0 0 0 0 0 0 0 0 0 0 0 0 0 0 0 0 0 0 0 0 0 0 0 0 0 0 0 0 0 0 0 0 0 0 0 0 0 0 0 0 0 0 0 0 0 0 0 0 0 0 0 0 0 0 0 0 0 0 0 0 0 0 0 0 0 0 0 0 0 0 0 0 0 0 0 0 0 0 0 0 0 0 0 0 0 0 0 0 0 0 0 0 0 0 0 0 0 0 0 0 0 0 0 0 0 0 0 0 0 0 0 0 0 0 0 0 0 0 0 0 0 0 0 0 0 0 0 0 0 0 0 0 0 0 0 0 0 0 0 0 0 0 0 0 0 0 0 0 0 0 0 0 0 0 0 0 0 0 0 0 0 0 0 0 0 0 0 0 0 0 0 0 0 0 0 0 0 0 0 0 0 0 0 0 0 0 0 0 0 0 0 0 0 0 0 0 0 0 0 0 0 0 0 0 0 0 0 0 0 0 0 0 0 0 0 0 0 0 0 0 0 0 0 0 0 0 0 0 0 0 0 0 0 0 0 0 0 0 0 0 0 0 0 0 0 0 0 0 0 0 0 0 0 0 0 0 0 0 0 0 0 0 0 0 0 0 0 0 0 0 0 0 0 0 0 0 0 0 0 0 0 0 0 0 0 0 0 0 0 0 0 0 0 0 0 0 0 0 0 0 0 0 0 0 0 0 0 0 0 0 0 0 0 0 0 0 0 0 0 0 0 0 0 0 0 0 0 0 0 0 0 0 0 0 0 0 0 0 0 0 0 0 0 0 0 0 0 0 0 0 0 0 0 0 0 0 0 0 0 0 0 0 0 0 0 0 0 0 0 0 0 0 0 0 0 0 0 0 0 0 0 0 0 0 0 0 0 0 0 0 0 0 0 0 0 0 0 0 0 0 0 0 0 0 0 0 0 0 0 0 0 0 0 0 0 0 0 0 0 0 0 0 0 0 0 0 0 0 0 0 0 0 0 0 0 0 0 0 0 0 0 0 0 0 0 0 0 0 0 0 0 0 0 0 0 0 0 0 0 0 0 0 0 0 0 0 0 0 0 0 0 0 0 0 0 0 0 0 0 0 0 0 0 0 0 0 0 0 0 0 0 0 0 0 0 0 0 0 0 0 0 0 0 0 0 0 0 0 0 0 0 0 0 0 0 0 0 0 0 0 0 0 0 0 0 0 0 0 0 0 0 0 0 0 0 0 0 0 0 0 0 0 0 0 0 0 0 0 0 0 0 0 0 0 0 0 0 0 0 0 0 0 0 0 0 0 0 0 0 0 0 0 0 0 0 0 0 0 0 0 0 0 0 0 0 0 0 0 0 0 0 0 0 0 0 0 0 0 0 0 0 0 0 0 0 0 0 0 0 0 0 0 0 0 0 0 0 0 0 0 0 0 0 0 0 0 0 0 0 0 0 0 0 0 0 0 0 0 0 0 0 0 0 0 0 0 0 0 0 0 0 0 0 0 0 0 0 0 0 0 0 0 0 0 0 0 0 0 0 0 0 0 0 0 0 0 0 0 0 0 0 0 0 0 0 0 0 0 0 0 0 0 0 0 0 0 0 0 0 0 0 0 0 0 0 0 0 0 0 0 0 0 0 0 0 0 0 0 0 0 0 0 0 0 0 0 0 0 0 0 0 0 0 0 0 0 0 0 0 0 0 0 0 0 0 0 0 0 0 0 0 0 0 0 0 0 0 0 0 0 0 0 0 0 0 0 0 0 0 0 0 0 0 0 0 0 0 0 0 0 0 0 0 0 0 0 0 0 0 0 0 0 0 0 0 0 0 0 0 0 0 0 0 0 0 0 0 0 0 0 0 0 0 0 0 0 0 0 0 0 0 0 0 0 0 0 0 0 0 0 0 0 0 0 0 0 0 0 0 0 0 0 0 0 0 0 0 0 0 0 0 0 0 0 0 0 0 0 0 0 0 0 0 0 0 0 0 0 0 0 0 0 0 0 0 0 0 0 0 0 0 0 0 0 0 0 0 0 0 0 0 0 0 0 0 0 0 0 0 0 0 0 0 0 0 0 0 0 0 0 0 0 0 ];
Traffic[1]class1Average hops = 1 (32835 samples)
traffic_manager/hop_stats_freq = [ 0 32835 0 0 0 0 0 0 0 0 0 0 0 0 0 0 0 0 0 0 ];
----------------------------END-of-Interconnect-DETAILS-------------------------

gpgpu_simulation_time = 0 days, 0 hrs, 0 min, 29 sec (29 sec)
gpgpu_simulation_rate = 289897 (inst/sec)
gpgpu_simulation_rate = 10304 (cycle/sec)
GPGPU-Sim: synchronize waiting for inactive GPU simulation
GPGPU-Sim API: Stream Manager State
GPGPU-Sim: detected inactive GPU simulation thread

kernel '_Z12bicg_kernel2PfS_S_' transfer to GPU hardware scheduler
kernel_name = _Z12bicg_kernel2PfS_S_ 
kernel_launch_uid = 2 
gpu_sim_cycle = 71420833
gpu_sim_insn = 8410112
gpu_ipc =       0.1178
gpu_tot_sim_cycle = 71719667
gpu_tot_sim_insn = 16817152
gpu_tot_ipc =       0.2345
gpu_tot_issued_cta = 0
gpu_stall_dramfull = 0
gpu_stall_icnt2sh    = 1
gpu_total_sim_rate=3529
Cache L1D_000:	Size = 16384 B (32 Set x 4-way x 128 byte line)
		Access = 0, Miss = 0 (-nan), PendingHit = 0 (-nan)
Cache L1D_001:	Size = 16384 B (32 Set x 4-way x 128 byte line)
		Access = 65536, Miss = 32800 (0.5), PendingHit = 224 (0.00342)
Cache L1D_002:	Size = 16384 B (32 Set x 4-way x 128 byte line)
		Access = 1081344, Miss = 1054953 (0.976), PendingHit = 26131 (0.0242)
Cache L1D_003:	Size = 16384 B (32 Set x 4-way x 128 byte line)
		Access = 0, Miss = 0 (-nan), PendingHit = 0 (-nan)
Cache L1D_004:	Size = 16384 B (32 Set x 4-way x 128 byte line)
		Access = 0, Miss = 0 (-nan), PendingHit = 0 (-nan)
Cache L1D_005:	Size = 16384 B (32 Set x 4-way x 128 byte line)
		Access = 0, Miss = 0 (-nan), PendingHit = 0 (-nan)
Cache L1D_006:	Size = 16384 B (32 Set x 4-way x 128 byte line)
		Access = 0, Miss = 0 (-nan), PendingHit = 0 (-nan)
Cache L1D_007:	Size = 16384 B (32 Set x 4-way x 128 byte line)
		Access = 0, Miss = 0 (-nan), PendingHit = 0 (-nan)
Cache L1D_008:	Size = 16384 B (32 Set x 4-way x 128 byte line)
		Access = 0, Miss = 0 (-nan), PendingHit = 0 (-nan)
Cache L1D_009:	Size = 16384 B (32 Set x 4-way x 128 byte line)
		Access = 0, Miss = 0 (-nan), PendingHit = 0 (-nan)
Cache L1D_010:	Size = 16384 B (32 Set x 4-way x 128 byte line)
		Access = 0, Miss = 0 (-nan), PendingHit = 0 (-nan)
Cache L1D_011:	Size = 16384 B (32 Set x 4-way x 128 byte line)
		Access = 0, Miss = 0 (-nan), PendingHit = 0 (-nan)
Cache L1D_012:	Size = 16384 B (32 Set x 4-way x 128 byte line)
		Access = 0, Miss = 0 (-nan), PendingHit = 0 (-nan)
Cache L1D_013:	Size = 16384 B (32 Set x 4-way x 128 byte line)
		Access = 0, Miss = 0 (-nan), PendingHit = 0 (-nan)
total_dl1_misses=1087753
total_dl1_accesses=1146880
total_dl1_miss_rate= 0.948445
Shader 0 dynamic_warp_id issue ditsribution:
dynamic_warp_id:

distro:

gpgpu_n_tot_thrd_icount = 16821248
gpgpu_n_tot_w_icount = 525664
gpgpu_n_icache_hits = 328288
gpgpu_n_icache_misses = 130
gpgpu_n_l1dcache_read_hits = 32772
gpgpu_n_l1dcache_read_misses = 1114108
gpgpu_n_l1dcache_write_accesses = 64
gpgpu_n_l1dcache_wirte_misses = 64
gpgpu_n_tcache_hits = 0
gpgpu_n_tcache_misses = 0
gpgpu_n_ccache_hits = 128
gpgpu_n_ccache_misses = 64
gpgpu_n_stall_shd_mem = 71357464
gpgpu_n_mem_read_local = 0
gpgpu_n_mem_write_local = 0
gpgpu_n_mem_read_global = 1087753
gpgpu_n_mem_write_global = 64
gpgpu_n_mem_texture = 0
gpgpu_n_mem_const = 2
gpgpu_n_load_insn  = 8388608
gpgpu_n_store_insn = 4096
gpgpu_n_shmem_insn = 0
gpgpu_n_tex_insn = 0
gpgpu_n_const_mem_insn = 0
gpgpu_n_param_mem_insn = 12288
gpgpu_n_shmem_bkconflict = 0
gpgpu_n_cache_bkconflict = 0
gpgpu_n_intrawarp_mshr_merge = 0
gpgpu_n_cmem_portconflict = 362
gpgpu_stall_shd_mem[c_mem][bk_conf] = 362
gpgpu_stall_shd_mem[c_mem][mshr_rc] = 0
gpgpu_stall_shd_mem[c_mem][icnt_rc] = 0
gpgpu_stall_shd_mem[t_mem][mshr_rc] = 0
gpgpu_stall_shd_mem[t_mem][icnt_rc] = 0
gpgpu_stall_shd_mem[s_mem][bk_conf] = 0
gpgpu_stall_shd_mem[gl_mem][bk_conf] = 0
gpgpu_stall_shd_mem[gl_mem][coal_stall] = 71357102
gpgpu_stall_shd_mem[g_mem_ld][mshr_rc] = 0
gpgpu_stall_shd_mem[g_mem_ld][icnt_rc] = 0
gpgpu_stall_shd_mem[g_mem_ld][wb_icnt_rc] = 0
gpgpu_stall_shd_mem[g_mem_ld][wb_rsrv_fail] = 0
gpgpu_stall_shd_mem[g_mem_st][mshr_rc] = 0
gpgpu_stall_shd_mem[g_mem_st][icnt_rc] = 0
gpgpu_stall_shd_mem[g_mem_st][wb_icnt_rc] = 0
gpgpu_stall_shd_mem[g_mem_st][wb_rsrv_fail] = 0
gpgpu_stall_shd_mem[l_mem_ld][mshr_rc] = 0
gpgpu_stall_shd_mem[l_mem_ld][icnt_rc] = 0
gpgpu_stall_shd_mem[l_mem_ld][wb_icnt_rc] = 0
gpgpu_stall_shd_mem[l_mem_ld][wb_rsrv_fail] = 0
gpgpu_stall_shd_mem[l_mem_st][mshr_rc] = 0
gpgpu_stall_shd_mem[l_mem_st][icnt_rc] = 0
gpgpu_stall_shd_mem[l_mem_ld][wb_icnt_rc] = 0
gpgpu_stall_shd_mem[l_mem_ld][wb_rsrv_fail] = 0
gpu_reg_bank_conflict_stalls = 0
Warp Occupancy Distribution:
Stall:106890070	W0_Idle:35702146	W0_Scoreboard:321506	W1:0	W2:0	W3:0	W4:0	W5:0	W6:0	W7:0	W8:0	W9:0	W10:0	W11:0	W12:0	W13:0	W14:0	W15:0	W16:0	W17:0	W18:0	W19:0	W20:0	W21:0	W22:0	W23:0	W24:0	W25:0	W26:0	W27:0	W28:0	W29:0	W30:0	W31:0	W32:525664
maxmrqlatency = 134 
maxdqlatency = 0 
maxmflatency = 368 
averagemflatency = 270 
max_icnt2mem_latency = 8 
max_icnt2sh_latency = 71719666 
mrq_lat_table:1082332 	1167 	858 	621 	1439 	45 	25 	1 	0 	0 	0 	0 	0 	0 	0 	0 	0 	0 	0 	0 	0 	0 	0 	0 	0 	0 	0 	0 	0 	0 	0 	0 	
dq_lat_table:0 	0 	0 	0 	0 	0 	0 	0 	0 	0 	0 	0 	0 	0 	0 	0 	0 	0 	0 	0 	0 	0 	0 	0 	0 	0 	0 	0 	0 	0 	0 	0 	
mf_lat_table:0 	0 	0 	0 	0 	0 	1400 	29488 	1056931 	0 	0 	0 	0 	0 	0 	0 	0 	0 	0 	0 	0 	0 	0 	0 	0 	0 	0 	0 	0 	0 	0 	0 	
icnt2mem_lat_table:5 	1087751 	66 	2 	0 	0 	0 	0 	0 	0 	0 	0 	0 	0 	0 	0 	0 	0 	0 	0 	0 	0 	0 	0 	
icnt2sh_lat_table:0 	1083365 	3940 	379 	71 	0 	0 	0 	0 	0 	0 	0 	0 	0 	0 	0 	0 	0 	32 	0 	0 	0 	0 	0 	
mf_lat_pw_table:0 	16 	16 	0 	0 	0 	0 	1964 	141473 	0 	0 	0 	0 	0 	0 	0 	0 	0 	0 	0 	0 	0 	0 	0 	0 	0 	0 	0 	0 	0 	0 	0 	
maximum concurrent accesses to same row:
dram[0]:        32        32        32        32        32        32        32        32        32        32        32        32        32        32        32        32 
dram[1]:        32        32        32        32        32        32        32        32        32        32        32        32        32        32        32        32 
dram[2]:        32        32        32        32        32        32        32        32        32        32        32        32        32        32        32        32 
dram[3]:        32        32        32        32        32        32        32        32        32        32        32        32        32        32        32        32 
dram[4]:        32        32        32        32        32        32        32        32        32        32        32        32        32        32        32        32 
maximum service time to same row:
dram[0]:     23397     23410     23422     23417     23376     23385     23338     23432     23424     23409     23345     23366     23388     23318     23341     23350 
dram[1]:     23338     23337     23353     23396     23396     23383     23373     23379     23409     23431     23347     23352     23366     23370     23399     23429 
dram[2]:     23319     23367     23390     23423     23324     23333     23343     23369     23356     23369     23351     23379     23392     23387     23316     23317 
dram[3]:     23394     23322     23337     23348     23358     23354     23343     23411     23431     23435     23344     23324     23335     23330     23360     23373 
dram[4]:     23443     23471     23478     23465     23374     23381     23378     23425     23422     23423     23367     23398     23410     23432     23456     23454 
average row accesses per activate:
dram[0]:  1.030542  1.030244  1.030244  1.030244  1.030244  1.030244  1.028753  1.031209  1.030244  1.030193  1.030244  1.030244  1.030244  1.030244  1.030244  1.030244 
dram[1]:  1.030239  1.030244  1.030244  1.030244  1.030244  1.030244  1.029204  1.030884  1.030244  1.030193  1.030244  1.030244  1.030244  1.030244  1.030244  1.030244 
dram[2]:  1.030244  1.030244  1.030244  1.030244  1.030244  1.030244  1.029341  1.030884  1.030244  1.030193  1.030244  1.030244  1.030244  1.030244  1.030244  1.030244 
dram[3]:  1.030244  1.030244  1.030244  1.030244  1.030244  1.030244  1.029034  1.030884  1.030244  1.030198  1.030244  1.030244  1.030244  1.030244  1.030244  1.030244 
dram[4]:  1.030244  1.030244  1.030244  1.030244  1.030244  1.030244  1.028590  1.030884  1.030244  1.030198  1.030244  1.030244  1.030244  1.030244  1.030244  1.030244 
average row locality = 1086488/1054634 = 1.030204
number of total memory accesses made:
dram[0]:         0         0         0         0         0         0         0         0         0         0         0         0         0         0         0         0 
dram[1]:         0         0         0         0         0         0         0         0         0         0         0         0         0         0         0         0 
dram[2]:         0         0         0         0         0         0         0         0         0         0         0         0         0         0         0         0 
dram[3]:         0         0         0         0         0         0         0         0         0         0         0         0         0         0         0         0 
dram[4]:         0         0         0         0         0         0         0         0         0         0         0         0         0         0         0         0 
total accesses: 0
min_bank_accesses = 0!
min_chip_accesses = 0!
number of total read accesses:
dram[0]:     13733     13728     13728     13728     13728     13728     14091     12680     12672     13068     13728     13728     13728     13728     13728     13728 
dram[1]:     13730     13728     13728     13728     13728     13728     14091     12678     12672     13068     13728     13728     13728     13728     13728     13728 
dram[2]:     13728     13728     13728     13728     13728     13728     14027     12678     12672     13068     13728     13728     13728     13728     13728     13728 
dram[3]:     13728     13728     13728     13728     13728     13728     14027     12678     12672     13134     13728     13728     13728     13728     13728     13728 
dram[4]:     13728     13728     13728     13728     13728     13728     14277     12678     12672     13134     13728     13728     13728     13728     13728     13728 
total reads: 1086424
bank skew: 14277/12672 = 1.13
chip skew: 217497/217181 = 1.00
number of total write accesses:
dram[0]:         0         0         0         0         0         0         6         8         0         0         0         0         0         0         0         0 
dram[1]:         0         0         0         0         0         0         6         6         0         0         0         0         0         0         0         0 
dram[2]:         0         0         0         0         0         0         6         6         0         0         0         0         0         0         0         0 
dram[3]:         0         0         0         0         0         0         8         6         0         0         0         0         0         0         0         0 
dram[4]:         0         0         0         0         0         0         6         6         0         0         0         0         0         0         0         0 
total reads: 64
min_bank_accesses = 0!
chip skew: 14/12 = 1.17
average mf latency per bank:
dram[0]:        270       270       270       270       270       270       272       270       270       270       270       270       270       270       270       270
dram[1]:        270       270       270       270       270       270       272       270       270       270       270       270       270       270       270       270
dram[2]:        270       270       270       270       270       270       272       270       270       270       270       270       270       270       270       270
dram[3]:        270       270       270       270       270       270       272       270       270       270       270       270       270       270       270       270
dram[4]:        270       270       270       270       270       270       273       270       270       270       270       270       270       270       270       270
maximum mf latency per bank:
dram[0]:        301       274       279       280       272       278       313       273       272       275       272       272       277       279       272       273
dram[1]:        292       274       279       280       279       278       357       274       274       276       276       272       273       277       283       276
dram[2]:        273       275       284       280       273       278       328       276       274       282       276       274       275       277       276       274
dram[3]:        275       275       289       280       279       278       368       275       274       284       282       279       281       284       280       281
dram[4]:        293       274       279       280       275       278       332       274       271       275       273       282       273       272       274       276

Number of Memory Banks Accessed per Memory Operation per Warp (from 0):
0	0	0	0	0	0	0	0	0	0	0	0	0	0	0	0	0	0	0	0	0	0	0	0	0	0	0	0	0	0	0	0	0	0	0	0	0	0	0	0	0	0	0	0	0	0	0	0	0	0	0	0	0	0	0	0	0	0	0	0	0	0	0	0	0	0	0	0	0	0	0	0	0	0	0	0	0	0	0	0	
Average # of Memory Banks Accessed per Memory Operation per Warp=-nan

position of mrq chosen
0	0	0	0	0	0	0	0	0	0	0	0	0	0	0	0	

average position of mrq chosen = -nan
gpgpu_l2_write_miss = 0
gpgpu_l2_write_access = 0
gpgpu_l2_read_miss = 0
gpgpu_l2_read_access = 0
Cache L2_bank_000:
MSHR contents
MSHR: tag=0x80403f80, atomic=0 1 entries : 0x2b1b04c15200 :  mf: uid=71817274, sid02:w31, part=0, addr=0x80403f80, load , size=128, unknown  status = IN_PARTITION_DRAM (71719666), 

DRAM[0]: 16 bks, busW=4 BL=8 CL=12, tRRD=2 tCCD=6, tRCD=12 tRAS=28 tRP=12 tRC=40
n_cmd=71719667 n_nop=70863365 n_act=210894 n_pre=210878 n_req=217266 n_rd=434502 n_write=28 bw_util=0.01212
n_activity=10925449 dram_eff=0.07954
bk0: 27466a 71693653i bk1: 27456a 71711729i bk2: 27456a 71708264i bk3: 27456a 71716174i bk4: 27456a 71717090i bk5: 27456a 71717138i bk6: 28182a 71715712i bk7: 25358a 71717663i bk8: 25344a 71716340i bk9: 26136a 71716874i bk10: 27456a 71717735i bk11: 27456a 71717368i bk12: 27456a 71688965i bk13: 27456a 71540427i bk14: 27456a 71717297i bk15: 27456a 65856779i 
dram_util_bins: 0 0 0 0 0 0 0 0 0 0
dram_eff_bins: 0 0 0 0 0 0 0 0 0 0
mrqq: max=6 avg=0.000119061
Cache L2_bank_001:
MSHR contents

DRAM[1]: 16 bks, busW=4 BL=8 CL=12, tRRD=2 tCCD=6, tRCD=12 tRAS=28 tRP=12 tRC=40
n_cmd=71719667 n_nop=70863389 n_act=210888 n_pre=210872 n_req=217259 n_rd=434494 n_write=24 bw_util=0.01212
n_activity=10924708 dram_eff=0.07955
bk0: 27460a 71693655i bk1: 27456a 71711809i bk2: 27456a 71708283i bk3: 27456a 71716162i bk4: 27456a 71717107i bk5: 27456a 71717136i bk6: 28182a 71715789i bk7: 25356a 71717536i bk8: 25344a 71716299i bk9: 26136a 71716888i bk10: 27456a 71717705i bk11: 27456a 71717263i bk12: 27456a 71688981i bk13: 27456a 71540573i bk14: 27456a 71717246i bk15: 27456a 65856996i 
dram_util_bins: 0 0 0 0 0 0 0 0 0 0
dram_eff_bins: 0 0 0 0 0 0 0 0 0 0
mrqq: max=9 avg=0.000117457
Cache L2_bank_002:
MSHR contents

DRAM[2]: 16 bks, busW=4 BL=8 CL=12, tRRD=2 tCCD=6, tRCD=12 tRAS=28 tRP=12 tRC=40
n_cmd=71719667 n_nop=70863653 n_act=210822 n_pre=210806 n_req=217193 n_rd=434362 n_write=24 bw_util=0.01211
n_activity=10920784 dram_eff=0.07955
bk0: 27456a 71693677i bk1: 27456a 71711687i bk2: 27456a 71708268i bk3: 27456a 71716092i bk4: 27456a 71717171i bk5: 27456a 71717142i bk6: 28054a 71715814i bk7: 25356a 71717591i bk8: 25344a 71716283i bk9: 26136a 71716929i bk10: 27456a 71717677i bk11: 27456a 71717342i bk12: 27456a 71688976i bk13: 27456a 71540425i bk14: 27456a 71717180i bk15: 27456a 65858845i 
dram_util_bins: 0 0 0 0 0 0 0 0 0 0
dram_eff_bins: 0 0 0 0 0 0 0 0 0 0
mrqq: max=7 avg=0.000133366
Cache L2_bank_003:
MSHR contents
MSHR: tag=0x80403d80, atomic=0 1 entries : 0x2b1b04c03330 :  mf: uid=71817272, sid02:w27, part=3, addr=0x80403d80, load , size=128, unknown  status = IN_PARTITION_DRAM (71719665), 

DRAM[3]: 16 bks, busW=4 BL=8 CL=12, tRRD=2 tCCD=6, tRCD=12 tRAS=28 tRP=12 tRC=40
n_cmd=71719667 n_nop=70863377 n_act=210892 n_pre=210876 n_req=217261 n_rd=434494 n_write=28 bw_util=0.01212
n_activity=10925834 dram_eff=0.07954
bk0: 27456a 71693794i bk1: 27456a 71711720i bk2: 27456a 71708529i bk3: 27456a 71716176i bk4: 27456a 71717084i bk5: 27456a 71717166i bk6: 28054a 71715801i bk7: 25356a 71717552i bk8: 25344a 71716298i bk9: 26268a 71716893i bk10: 27456a 71717544i bk11: 27456a 71717240i bk12: 27456a 71689496i bk13: 27456a 71540205i bk14: 27456a 71717129i bk15: 27456a 65856407i 
dram_util_bins: 0 0 0 0 0 0 0 0 0 0
dram_eff_bins: 0 0 0 0 0 0 0 0 0 0
mrqq: max=10 avg=0.000147282
Cache L2_bank_004:
MSHR contents
MSHR: tag=0x80403e80, atomic=0 1 entries : 0x2b1b04bfc5b0 :  mf: uid=71817273, sid02:w29, part=4, addr=0x80403e80, load , size=128, unknown  status = IN_PARTITION_DRAM (71719666), 

DRAM[4]: 16 bks, busW=4 BL=8 CL=12, tRRD=2 tCCD=6, tRCD=12 tRAS=28 tRP=12 tRC=40
n_cmd=71719667 n_nop=70862388 n_act=211139 n_pre=211123 n_req=217509 n_rd=434993 n_write=24 bw_util=0.01213
n_activity=10935707 dram_eff=0.07956
bk0: 27456a 71693826i bk1: 27456a 71711693i bk2: 27456a 71708203i bk3: 27456a 71716059i bk4: 27456a 71717167i bk5: 27456a 71717014i bk6: 28554a 71715250i bk7: 25355a 71717514i bk8: 25344a 71715950i bk9: 26268a 71716858i bk10: 27456a 71717707i bk11: 27456a 71717160i bk12: 27456a 71689044i bk13: 27456a 71540521i bk14: 27456a 71717267i bk15: 27456a 65851054i 
dram_util_bins: 0 0 0 0 0 0 0 0 0 0
dram_eff_bins: 0 0 0 0 0 0 0 0 0 0
mrqq: max=7 avg=0.00010898
Cache L2_bank_000:	Size = 131072 B (64 Set x 16-way x 128 byte line)
		Access = 217516, Miss = 217252 (0.999), PendingHit = 0 (0)
Cache L2_bank_001:	Size = 131072 B (64 Set x 16-way x 128 byte line)
		Access = 217511, Miss = 217247 (0.999), PendingHit = 0 (0)
Cache L2_bank_002:	Size = 131072 B (64 Set x 16-way x 128 byte line)
		Access = 217445, Miss = 217181 (0.999), PendingHit = 0 (0)
Cache L2_bank_003:	Size = 131072 B (64 Set x 16-way x 128 byte line)
		Access = 217511, Miss = 217247 (0.999), PendingHit = 0 (0)
Cache L2_bank_004:	Size = 131072 B (64 Set x 16-way x 128 byte line)
		Access = 217841, Miss = 217497 (0.998), PendingHit = 0 (0)
L2 Cache Total Miss Rate = 0.999

icnt_total_pkts_mem_to_simt=5438860
icnt_total_pkts_simt_to_mem=1088080

LD_mem_lat_dist  0 0 0 0 0 0 0 0 0 0 0 0 0 0 0 0 0 0 0 0 0 0 0 0 0 0 0
ST_mem_lat_dist  0 0 0 0 0 0 0 0 0 0 0 0 0 0 0 0 0 0 0 0 0 0 0 0 0 0 0
Traffic 0 Stat
%=================================
% Average latency = 1.00021
% Accepted packets = 0 at node 0 (avg = 0.000321157)
lat(3) = 1.00021;
thru(3,:) = [ 0 0 0 0 0 0 0 0 0 0 0 0 0 0 0.00147701 0.00147694 0.00147648 0.00147693 0.00147925 0 0 0 0 ];
% latency change    = 4.6836
% throughput change = 36.1585
Traffic 1 Stat
%=================================
% Average latency = 5.01714
% Accepted packets = 0 at node 0 (avg = 0.00160555)
lat(4) = 5.01714;
thru(4,:) = [ 0 0 0.0369277 0 0 0 0 0 0 0 0 0 0 0 0 0 0 0 0 0 0 0 0 ];
% latency change    = 0.800642
% throughput change = 0.799971
----------------------------Interconnect-DETAILS---------------------------------=======Traffic[0]class0 ======
Traffic[0]class0Overall average latency = 1.00219 (2 samples)
Traffic[0]class0Overall average accepted rate = 0.00135955 (2 samples)
Traffic[0]class0Overall min accepted rate = 0 (2 samples)
traffic_manager/latency_stat_0_freq = [ 0 1054953 0 0 0 12 3 1 11 7 2 0 0 0 0 0 0 0 0 0 0 0 0 0 0 0 0 0 0 0 0 0 0 0 0 0 0 0 0 0 0 0 0 0 0 0 0 0 0 0 0 0 0 0 0 0 0 0 0 0 0 0 0 0 0 0 0 0 0 0 0 0 0 0 0 0 0 0 0 0 0 0 0 0 0 0 0 0 0 0 0 0 0 0 0 0 0 0 0 0 0 0 0 0 0 0 0 0 0 0 0 0 0 0 0 0 0 0 0 0 0 0 0 0 0 0 0 0 0 0 0 0 0 0 0 0 0 0 0 0 0 0 0 0 0 0 0 0 0 0 0 0 0 0 0 0 0 0 0 0 0 0 0 0 0 0 0 0 0 0 0 0 0 0 0 0 0 0 0 0 0 0 0 0 0 0 0 0 0 0 0 0 0 0 0 0 0 0 0 0 0 0 0 0 0 0 0 0 0 0 0 0 0 0 0 0 0 0 0 0 0 0 0 0 0 0 0 0 0 0 0 0 0 0 0 0 0 0 0 0 0 0 0 0 0 0 0 0 0 0 0 0 0 0 0 0 0 0 0 0 0 0 0 0 0 0 0 0 0 0 0 0 0 0 0 0 0 0 0 0 0 0 0 0 0 0 0 0 0 0 0 0 0 0 0 0 0 0 0 0 0 0 0 0 0 0 0 0 0 0 0 0 0 0 0 0 0 0 0 0 0 0 0 0 0 0 0 0 0 0 0 0 0 0 0 0 0 0 0 0 0 0 0 0 0 0 0 0 0 0 0 0 0 0 0 0 0 0 0 0 0 0 0 0 0 0 0 0 0 0 0 0 0 0 0 0 0 0 0 0 0 0 0 0 0 0 0 0 0 0 0 0 0 0 0 0 0 0 0 0 0 0 0 0 0 0 0 0 0 0 0 0 0 0 0 0 0 0 0 0 0 0 0 0 0 0 0 0 0 0 0 0 0 0 0 0 0 0 0 0 0 0 0 0 0 0 0 0 0 0 0 0 0 0 0 0 0 0 0 0 0 0 0 0 0 0 0 0 0 0 0 0 0 0 0 0 0 0 0 0 0 0 0 0 0 0 0 0 0 0 0 0 0 0 0 0 0 0 0 0 0 0 0 0 0 0 0 0 0 0 0 0 0 0 0 0 0 0 0 0 0 0 0 0 0 0 0 0 0 0 0 0 0 0 0 0 0 0 0 0 0 0 0 0 0 0 0 0 0 0 0 0 0 0 0 0 0 0 0 0 0 0 0 0 0 0 0 0 0 0 0 0 0 0 0 0 0 0 0 0 0 0 0 0 0 0 0 0 0 0 0 0 0 0 0 0 0 0 0 0 0 0 0 0 0 0 0 0 0 0 0 0 0 0 0 0 0 0 0 0 0 0 0 0 0 0 0 0 0 0 0 0 0 0 0 0 0 0 0 0 0 0 0 0 0 0 0 0 0 0 0 0 0 0 0 0 0 0 0 0 0 0 0 0 0 0 0 0 0 0 0 0 0 0 0 0 0 0 0 0 0 0 0 0 0 0 0 0 0 0 0 0 0 0 0 0 0 0 0 0 0 0 0 0 0 0 0 0 0 0 0 0 0 0 0 0 0 0 0 0 0 0 0 0 0 0 0 0 0 0 0 0 0 0 0 0 0 0 0 0 0 0 0 0 0 0 0 0 0 0 0 0 0 0 0 0 0 0 0 0 0 0 0 0 0 0 0 0 0 0 0 0 0 0 0 0 0 0 0 0 0 0 0 0 0 0 0 0 0 0 0 0 0 0 0 0 0 0 0 0 0 0 0 0 0 0 0 0 0 0 0 0 0 0 0 0 0 0 0 0 0 0 0 0 0 0 0 0 0 0 0 0 0 0 0 0 0 0 0 0 0 0 0 0 0 0 0 0 0 0 0 0 0 0 0 0 0 0 0 0 0 0 0 0 0 0 0 0 0 0 0 0 0 0 0 0 0 0 0 0 0 0 0 0 0 0 0 0 0 0 0 0 0 0 0 0 0 0 0 0 0 0 0 0 0 0 0 0 0 0 0 0 0 0 0 0 0 0 0 0 0 0 0 0 0 0 0 0 0 0 0 0 0 0 0 0 0 0 0 0 0 0 0 0 0 0 0 0 0 0 0 0 0 0 0 0 0 0 0 0 0 0 0 0 0 0 0 0 0 0 0 0 0 0 0 0 0 0 0 0 0 0 0 0 0 0 0 0 0 0 0 0 0 0 0 0 0 0 0 0 ];
Traffic[0]class1Average hops = 1 (1087824 samples)
traffic_manager/hop_stats_freq = [ 0 1087824 0 0 0 0 0 0 0 0 0 0 0 0 0 0 0 0 0 0 ];
=======Traffic[1]class0 ======
Traffic[1]class0Overall average latency = 5.35096 (2 samples)
Traffic[1]class0Overall average accepted rate = 0.00676964 (2 samples)
Traffic[1]class0Overall min accepted rate = 0 (2 samples)
traffic_manager/latency_stat_0_freq = [ 0 29 1 1 0 1038841 15606 94 160 47 1 1 15 112 81 0 0 0 0 0 0 0 0 0 0 0 0 0 0 0 0 0 0 0 0 0 0 0 0 0 0 0 0 0 0 0 0 0 0 0 0 0 0 0 0 0 0 0 0 0 0 0 0 0 0 0 0 0 0 0 0 0 0 0 0 0 0 0 0 0 0 0 0 0 0 0 0 0 0 0 0 0 0 0 0 0 0 0 0 0 0 0 0 0 0 0 0 0 0 0 0 0 0 0 0 0 0 0 0 0 0 0 0 0 0 0 0 0 0 0 0 0 0 0 0 0 0 0 0 0 0 0 0 0 0 0 0 0 0 0 0 0 0 0 0 0 0 0 0 0 0 0 0 0 0 0 0 0 0 0 0 0 0 0 0 0 0 0 0 0 0 0 0 0 0 0 0 0 0 0 0 0 0 0 0 0 0 0 0 0 0 0 0 0 0 0 0 0 0 0 0 0 0 0 0 0 0 0 0 0 0 0 0 0 0 0 0 0 0 0 0 0 0 0 0 0 0 0 0 0 0 0 0 0 0 0 0 0 0 0 0 0 0 0 0 0 0 0 0 0 0 0 0 0 0 0 0 0 0 0 0 0 0 0 0 0 0 0 0 0 0 0 0 0 0 0 0 0 0 0 0 0 0 0 0 0 0 0 0 0 0 0 0 0 0 0 0 0 0 0 0 0 0 0 0 0 0 0 0 0 0 0 0 0 0 0 0 0 0 0 0 0 0 0 0 0 0 0 0 0 0 0 0 0 0 0 0 0 0 0 0 0 0 0 0 0 0 0 0 0 0 0 0 0 0 0 0 0 0 0 0 0 0 0 0 0 0 0 0 0 0 0 0 0 0 0 0 0 0 0 0 0 0 0 0 0 0 0 0 0 0 0 0 0 0 0 0 0 0 0 0 0 0 0 0 0 0 0 0 0 0 0 0 0 0 0 0 0 0 0 0 0 0 0 0 0 0 0 0 0 0 0 0 0 0 0 0 0 0 0 0 0 0 0 0 0 0 0 0 0 0 0 0 0 0 0 0 0 0 0 0 0 0 0 0 0 0 0 0 0 0 0 0 0 0 0 0 0 0 0 0 0 0 0 0 0 0 0 0 0 0 0 0 0 0 0 0 0 0 0 0 0 0 0 0 0 0 0 0 0 0 0 0 0 0 0 0 0 0 0 0 0 0 0 0 0 0 0 0 0 0 0 0 0 0 0 0 0 0 0 0 0 0 0 0 0 0 0 0 0 0 0 0 0 0 0 0 0 0 0 0 0 0 0 0 0 0 0 0 0 0 0 0 0 0 0 0 0 0 0 0 0 0 0 0 0 0 0 0 0 0 0 0 0 0 0 0 0 0 0 0 0 0 0 0 0 0 0 0 0 0 0 0 0 0 0 0 0 0 0 0 0 0 0 0 0 0 0 0 0 0 0 0 0 0 0 0 0 0 0 0 0 0 0 0 0 0 0 0 0 0 0 0 0 0 0 0 0 0 0 0 0 0 0 0 0 0 0 0 0 0 0 0 0 0 0 0 0 0 0 0 0 0 0 0 0 0 0 0 0 0 0 0 0 0 0 0 0 0 0 0 0 0 0 0 0 0 0 0 0 0 0 0 0 0 0 0 0 0 0 0 0 0 0 0 0 0 0 0 0 0 0 0 0 0 0 0 0 0 0 0 0 0 0 0 0 0 0 0 0 0 0 0 0 0 0 0 0 0 0 0 0 0 0 0 0 0 0 0 0 0 0 0 0 0 0 0 0 0 0 0 0 0 0 0 0 0 0 0 0 0 0 0 0 0 0 0 0 0 0 0 0 0 0 0 0 0 0 0 0 0 0 0 0 0 0 0 0 0 0 0 0 0 0 0 0 0 0 0 0 0 0 0 0 0 0 0 0 0 0 0 0 0 0 0 0 0 0 0 0 0 0 0 0 0 0 0 0 0 0 0 0 0 0 0 0 0 0 0 0 0 0 0 0 0 0 0 0 0 0 0 0 0 0 0 0 0 0 0 0 0 0 0 0 0 0 0 0 0 0 0 0 0 0 0 0 0 0 0 0 0 0 0 0 0 0 0 0 0 0 0 0 0 0 0 0 0 0 0 0 0 0 0 0 0 0 0 0 0 0 0 0 0 0 0 0 0 0 0 0 0 0 0 0 0 0 0 0 0 0 0 0 0 0 0 0 0 0 0 0 0 0 0 0 0 0 0 0 0 0 0 0 0 0 0 0 0 0 0 0 ];
Traffic[1]class1Average hops = 1 (1087824 samples)
traffic_manager/hop_stats_freq = [ 0 1087824 0 0 0 0 0 0 0 0 0 0 0 0 0 0 0 0 0 0 ];
----------------------------END-of-Interconnect-DETAILS-------------------------

gpgpu_simulation_time = 0 days, 1 hrs, 19 min, 25 sec (4765 sec)
gpgpu_simulation_rate = 3529 (inst/sec)
gpgpu_simulation_rate = 15051 (cycle/sec)
GPGPU-Sim: synchronize waiting for inactive GPU simulation
GPGPU-Sim API: Stream Manager State
GPGPU-Sim: detected inactive GPU simulation thread
GPU Runtime: 4764.609173s
