

        *** GPGPU-Sim Simulator Version 3.2.1  [build 15629] ***


               1=functional simulation only, 0=detailed performance simulator)
GPGPU-Sim: Configuration options:

-network_mode                           1 # Interconnection network mode
-inter_config_file   config_fermi_islip.icnt # Interconnection network config file
-gpgpu_ptx_use_cuobjdump                    1 # Use cuobjdump to extract ptx and sass from binaries
-gpgpu_experimental_lib_support                    0 # Try to extract code from cuda libraries [Broken because of unknown cudaGetExportTable]
-gpgpu_ptx_convert_to_ptxplus                    0 # Convert SASS (native ISA) to ptxplus and run ptxplus
-gpgpu_ptx_force_max_capability                   20 # Force maximum compute capability
-gpgpu_ptx_inst_debug_to_file                    0 # Dump executed instructions' debug information to file
-gpgpu_ptx_inst_debug_file       inst_debug.txt # Executed instructions' debug output file
-gpgpu_ptx_inst_debug_thread_uid                    1 # Thread UID for executed instructions' debug output
-gpgpu_simd_model                       1 # 1 = post-dominator
-gpgpu_shader_core_pipeline              1536:32 # shader core pipeline config, i.e., {<nthread>:<warpsize>}
-gpgpu_tex_cache:l1  4:128:24,L:R:m:N,F:128:4,128:2 # per-shader L1 texture cache  (READ-ONLY) config  {<nsets>:<bsize>:<assoc>,<rep>:<wr>:<alloc>:<wr_alloc>,<mshr>:<N>:<merge>,<mq>:<rf>}
-gpgpu_const_cache:l1 64:64:2,L:R:f:N,A:2:32,4 # per-shader L1 constant memory cache  (READ-ONLY) config  {<nsets>:<bsize>:<assoc>,<rep>:<wr>:<alloc>:<wr_alloc>,<mshr>:<N>:<merge>,<mq>} 
-gpgpu_cache:il1     4:128:4,L:R:f:N,A:2:32,4 # shader L1 instruction cache config  {<nsets>:<bsize>:<assoc>,<rep>:<wr>:<alloc>:<wr_alloc>,<mshr>:<N>:<merge>,<mq>} 
-gpgpu_cache:dl1     32:128:4,L:L:m:N,A:32:8,8 # per-shader L1 data cache config  {<nsets>:<bsize>:<assoc>,<rep>:<wr>:<alloc>:<wr_alloc>,<mshr>:<N>:<merge>,<mq> | none}
-gpgpu_perfect_mem                      0 # enable perfect memory mode (no cache miss)
-n_regfile_gating_group                    4 # group of lanes that should be read/written together)
-gpgpu_clock_gated_reg_file                    0 # enable clock gated reg file for power calculations
-gpgpu_clock_gated_lanes                    0 # enable clock gated lanes for power calculations
-gpgpu_shader_registers                32768 # Number of registers per shader core. Limits number of concurrent CTAs. (default 8192)
-gpgpu_shader_cta                       8 # Maximum number of concurrent CTAs in shader (default 8)
-gpgpu_n_clusters                      14 # number of processing clusters
-gpgpu_n_cores_per_cluster                    1 # number of simd cores per cluster
-gpgpu_n_cluster_ejection_buffer_size                    8 # number of packets in ejection buffer
-gpgpu_n_ldst_response_buffer_size                    2 # number of response packets in ld/st unit ejection buffer
-gpgpu_shmem_size                   16384 # Size of shared memory per shader core (default 16kB)
-gpgpu_shmem_num_banks                   32 # Number of banks in the shared memory in each shader core (default 16)
-gpgpu_shmem_limited_broadcast                    0 # Limit shared memory to do one broadcast per cycle (default on)
-gpgpu_shmem_warp_parts                    1 # Number of portions a warp is divided into for shared memory bank conflict check 
-gpgpu_warpdistro_shader                   -1 # Specify which shader core to collect the warp size distribution from
-gpgpu_warp_issue_shader                    0 # Specify which shader core to collect the warp issue distribution from
-gpgpu_local_mem_map                    1 # Mapping from local memory space address to simulated GPU physical address space (default = enabled)
-gpgpu_num_reg_banks                   16 # Number of register banks (default = 8)
-gpgpu_reg_bank_use_warp_id                    0 # Use warp ID in mapping registers to banks (default = off)
-gpgpu_operand_collector_num_units_sp                    6 # number of collector units (default = 4)
-gpgpu_operand_collector_num_units_sfu                    8 # number of collector units (default = 4)
-gpgpu_operand_collector_num_units_mem                    2 # number of collector units (default = 2)
-gpgpu_operand_collector_num_units_gen                    0 # number of collector units (default = 0)
-gpgpu_operand_collector_num_in_ports_sp                    2 # number of collector unit in ports (default = 1)
-gpgpu_operand_collector_num_in_ports_sfu                    1 # number of collector unit in ports (default = 1)
-gpgpu_operand_collector_num_in_ports_mem                    1 # number of collector unit in ports (default = 1)
-gpgpu_operand_collector_num_in_ports_gen                    0 # number of collector unit in ports (default = 0)
-gpgpu_operand_collector_num_out_ports_sp                    2 # number of collector unit in ports (default = 1)
-gpgpu_operand_collector_num_out_ports_sfu                    1 # number of collector unit in ports (default = 1)
-gpgpu_operand_collector_num_out_ports_mem                    1 # number of collector unit in ports (default = 1)
-gpgpu_operand_collector_num_out_ports_gen                    0 # number of collector unit in ports (default = 0)
-gpgpu_coalesce_arch                   13 # Coalescing arch (default = 13, anything else is off for now)
-gpgpu_num_sched_per_core                    2 # Number of warp schedulers per core
-gpgpu_max_insn_issue_per_warp                    1 # Max number of instructions that can be issued per warp in one cycle by scheduler
-gpgpu_simt_core_sim_order                    1 # Select the simulation order of cores in a cluster (0=Fix, 1=Round-Robin)
-gpgpu_pipeline_widths        2,1,1,2,1,1,2 # Pipeline widths ID_OC_SP,ID_OC_SFU,ID_OC_MEM,OC_EX_SP,OC_EX_SFU,OC_EX_MEM,EX_WB
-gpgpu_num_sp_units                     2 # Number of SP units (default=1)
-gpgpu_num_sfu_units                    1 # Number of SF units (default=1)
-gpgpu_num_mem_units                    1 # Number if ldst units (default=1) WARNING: not hooked up to anything
-gpgpu_scheduler                      lrr # Scheduler configuration: < lrr | gto | two_level_active > If two_level_active:<num_active_warps>:<inner_prioritization>:<outer_prioritization>For complete list of prioritization values see shader.h enum scheduler_prioritization_typeDefault: gto
-gpgpu_dram_scheduler                    1 # 0 = fifo, 1 = FR-FCFS (defaul)
-gpgpu_dram_partition_queues              8:8:8:8 # i2$:$2d:d2$:$2i
-l2_ideal                               0 # Use a ideal L2 cache that always hit
-gpgpu_cache:dl2     64:128:16,L:B:m:W,A:32:4,4 # unified banked L2 data cache config  {<nsets>:<bsize>:<assoc>,<rep>:<wr>:<alloc>:<wr_alloc>,<mshr>:<N>:<merge>,<mq>}
-gpgpu_cache:dl2_texture_only                    0 # L2 cache used for texture only
-gpgpu_n_mem                            5 # number of memory modules (e.g. memory controllers) in gpu
-gpgpu_n_mem_per_ctrlr                    2 # number of memory chips per memory controller
-gpgpu_memlatency_stat                   14 # track and display latency statistics 0x2 enables MC, 0x4 enables queue logs
-gpgpu_frfcfs_dram_sched_queue_size                   16 # 0 = unlimited (default); # entries per chip
-gpgpu_dram_return_queue_size                    0 # 0 = unlimited (default); # entries per chip
-gpgpu_dram_buswidth                    4 # default = 4 bytes (8 bytes per cycle at DDR)
-gpgpu_dram_burst_length                    8 # Burst length of each DRAM request (default = 4 data bus cycle)
-dram_data_command_freq_ratio                    4 # Frequency ratio between DRAM data bus and command bus (default = 2 times, i.e. DDR)
-gpgpu_dram_timing_opt nbk=16:CCD=2:RRD=6:RCD=12:RAS=28:RP=12:RC=40: CL=12:WL=4:CDLR=5:WR=12:nbkgrp=4:CCDL=3:RTPL=2 # DRAM timing parameters = {nbk:tCCD:tRRD:tRCD:tRAS:tRP:tRC:CL:WL:tCDLR:tWR:nbkgrp:tCCDL:tRTPL}
-rop_latency                          120 # ROP queue latency (default 85)
-dram_latency                         100 # DRAM latency (default 30)
-gpgpu_mem_addr_mapping dramid@8;00000000.00000000.00000000.00000000.0000RRRR.RRRRRRRR.BBBBCCCC.CCSSSSSS # mapping memory address to dram model {dramid@<start bit>;<memory address map>}
-gpgpu_mem_addr_test                    0 # run sweep test to check address mapping for aliased address
-gpgpu_mem_address_mask                    1 # 0 = old addressing mask, 1 = new addressing mask, 2 = new add. mask + flipped bank sel and chip sel bits
-gpuwattch_xml_file         gpuwattch.xml # GPUWattch XML file
-power_simulation_enabled                    1 # Turn on power simulator (1=On, 0=Off)
-power_per_cycle_dump                    0 # Dump detailed power output each cycle
-power_trace_enabled                    1 # produce a file for the power trace (1=On, 0=Off)
-power_trace_zlevel                     6 # Compression level of the power trace output log (0=no comp, 9=highest)
-steady_power_levels_enabled                    0 # produce a file for the steady power levels (1=On, 0=Off)
-steady_state_definition                  8:4 # allowed deviation:number of samples
-gpgpu_max_cycle                        0 # terminates gpu simulation early (0 = no limit)
-gpgpu_max_insn                         0 # terminates gpu simulation early (0 = no limit)
-gpgpu_max_cta                          0 # terminates gpu simulation early (0 = no limit)
-gpgpu_runtime_stat                   500 # display runtime statistics such as dram utilization {<freq>:<flag>}
-gpgpu_flush_l1_cache                    0 # Flush L1 cache at the end of each kernel call
-gpgpu_flush_l2_cache                    0 # Flush L2 cache at the end of each kernel call
-gpgpu_deadlock_detect                    1 # Stop the simulation at deadlock (1=on (default), 0=off)
-gpgpu_ptx_instruction_classification                    0 # if enabled will classify ptx instruction types per kernel (Max 255 kernels now)
-gpgpu_ptx_sim_mode                     0 # Select between Performance (default) or Functional simulation (1)
-gpgpu_clock_domains 600.0:1200.0:600.0:600.0 # Clock Domain Frequencies in MhZ {<Core Clock>:<ICNT Clock>:<L2 Clock>:<DRAM Clock>}
-gpgpu_max_concurrent_kernel                    8 # maximum kernels that can run concurrently on GPU
-gpgpu_cflog_interval                    0 # Interval between each snapshot in control flow logger
-visualizer_enabled                     0 # Turn on visualizer output (1=On, 0=Off)
-visualizer_outputfile                 NULL # Specifies the output log file for visualizer
-visualizer_zlevel                      6 # Compression level of the visualizer output log (0=no comp, 9=highest)
-trace_enabled                          0 # Turn on traces
-trace_components                    none # comma seperated list of traces to enable. Complete list found in trace_streams.tup. Default none
-trace_sampling_core                    0 # The core which is printed using CORE_DPRINTF. Default 0
-enable_ptx_file_line_stats                    1 # Turn on PTX source line statistic profiling. (1 = On)
-ptx_line_stats_filename gpgpu_inst_stats.txt # Output file for PTX source line statistics.
-save_embedded_ptx                      0 # saves ptx files embedded in binary as <n>.ptx
-keep                                   0 # keep intermediate files created by GPGPU-Sim when interfacing with external programs
-gpgpu_ptx_save_converted_ptxplus                    0 # Saved converted ptxplus to a file
-ptx_opcode_latency_int         4,13,4,5,145 # Opcode latencies for integers <ADD,MAX,MUL,MAD,DIV>Default 1,1,19,25,145
-ptx_opcode_latency_fp          4,13,4,5,39 # Opcode latencies for single precision floating points <ADD,MAX,MUL,MAD,DIV>Default 1,1,1,1,30
-ptx_opcode_latency_dp         8,19,8,8,330 # Opcode latencies for double precision floating points <ADD,MAX,MUL,MAD,DIV>Default 8,8,8,8,335
-ptx_opcode_initiation_int            1,2,2,1,8 # Opcode initiation intervals for integers <ADD,MAX,MUL,MAD,DIV>Default 1,1,4,4,32
-ptx_opcode_initiation_fp            1,2,1,1,4 # Opcode initiation intervals for single precision floating points <ADD,MAX,MUL,MAD,DIV>Defaultec7727fe468861c7ac4a52d213acb767  /tmp/tmp.WDO7ipkC43/lbm__SIZE1_1
 1,1,1,1,5
-ptx_opcode_initiation_dp         8,16,8,8,130 # Opcode initiation intervals for double precision floating points <ADD,MAX,MUL,MAD,DIV>Default 8,8,8,8,130
DRAM Timing Options:
nbk                                    16 # number of banks
CCD                                     2 # column to column delay
RRD                                     6 # minimal delay between activation of rows in different banks
RCD                                    12 # row to column delay
RAS                                    28 # time needed to activate row
RP                                     12 # time needed to precharge (deactivate) row
RC                                     40 # row cycle time
CDLR                                    5 # switching from write to read (changes tWTR)
WR                                     12 # last data-in to row precharge
CL                                     12 # CAS latency
WL                                      4 # Write latency
nbkgrp                                  4 # number of bank groups
CCDL                                    3 # column to column delay between accesses to different bank groups
RTPL                                    2 # read to precharge delay between accesses to different bank groups
addr_dec_mask[CHIP]  = 0000000000000000 	high:64 low:0
addr_dec_mask[BK]    = 000000000000f000 	high:16 low:12
addr_dec_mask[ROW]   = 000000000fff0000 	high:28 low:16
addr_dec_mask[COL]   = 0000000000000fff 	high:12 low:0
addr_dec_mask[BURST] = 000000000000003f 	high:6 low:0
*** Initializing Memory Statistics ***
self exe links to: /tmp/tmp.WDO7ipkC43/lbm__SIZE1_1
Running md5sum using "md5sum /tmp/tmp.WDO7ipkC43/lbm__SIZE1_1 "
Running cuobjdump using "$CUDA_INSTALL_PATH/bin/cuobjdump -ptx -elf -sass /tmp/tmp.WDO7ipkC43/lbm__SIZE1_1 > _cuobjdump_complete_output_rqmpUo"
Parsing file _cuobjdump_complete_output_rqmpUo
######### cuobjdump parser ########
## Adding new section PTX
Adding ptx filename: _cuobjdump_1.ptx
Adding arch: sm_13
Adding identifier: benchmarks/lbm/lbm.cu
## Adding new section ELF
Adding arch: sm_13
Adding identifier: benchmarks/lbm/lbm.cu
Done parsing!!!
Adding _cuobjdump_1.ptx with cubin handle 1
Running: cat _ptx_YIOyLG | sed 's/.version 1.5/.version 1.4/' | sed 's/, texmode_independent//' | sed 's/\(\.extern \.const\[1\] .b8 \w\+\)\[\]/\1\[1\]/' | sed 's/const\[.\]/const\[0\]/g' > _ptx2_dPjJCY
LBM_allocateGrid: allocated 185.2 MByte
MAIN_printInfo:
	grid size      : 120 x 120 x 150 = 2.16 * 10^6 Cells
	nTimeSteps     : 2
	result file    : (null)
	action         : store
	simulation type: lid-driven cavity
	obstacle file  : /home/cnugteren/software/parboil-2.5/datasets/lbm/long/input/120_120_150_ldc.of

LBM_allocateGrid: allocated 185.2 MByte
LBM_allocateGrid: allocated 185.2 MByte
LBM_showGridStatistics:
	nObstacleCells:  343321 nAccelCells:   26912 nFluidCells: 1789767
	minRho:   1.0000 maxRho:   1.0000 mass: 2.160000e+06
	minU: 0.000000e+00 maxU: 0.000000e+00


kernel '_Z27performStreamCollide_kernelPfS_' transfer to GPU hardware scheduler
kernel_name = _Z27performStreamCollide_kernelPfS_ 
kernel_launch_uid = 1 
gpu_sim_cycle = 50139230
gpu_sim_insn = 565843056
gpu_ipc =      11.2854
gpu_tot_sim_cycle = 50139230
gpu_tot_sim_insn = 565843056
gpu_tot_ipc =      11.2854
gpu_tot_issued_cta = 0
gpu_stall_dramfull = 85085974
gpu_stall_icnt2sh    = 38215185
gpu_total_sim_rate=25959
Cache L1D_000:	Size = 16384 B (32 Set x 4-way x 128 byte line)
		Access = 1927500, Miss = 1476440 (0.766), PendingHit = 116086 (0.0602)
Cache L1D_001:	Size = 16384 B (32 Set x 4-way x 128 byte line)
		Access = 1921500, Miss = 1487302 (0.774), PendingHit = 114011 (0.0593)
Cache L1D_002:	Size = 16384 B (32 Set x 4-way x 128 byte line)
		Access = 1921500, Miss = 1476081 (0.768), PendingHit = 122020 (0.0635)
Cache L1D_003:	Size = 16384 B (32 Set x 4-way x 128 byte line)
		Access = 1924500, Miss = 1474617 (0.766), PendingHit = 124476 (0.0647)
Cache L1D_004:	Size = 16384 B (32 Set x 4-way x 128 byte line)
		Access = 1971000, Miss = 1440249 (0.731), PendingHit = 126287 (0.0641)
Cache L1D_005:	Size = 16384 B (32 Set x 4-way x 128 byte line)
		Access = 1921500, Miss = 1488301 (0.775), PendingHit = 118420 (0.0616)
Cache L1D_006:	Size = 16384 B (32 Set x 4-way x 128 byte line)
		Access = 1920000, Miss = 1478863 (0.77), PendingHit = 116801 (0.0608)
Cache L1D_007:	Size = 16384 B (32 Set x 4-way x 128 byte line)
		Access = 1932000, Miss = 1502971 (0.778), PendingHit = 117004 (0.0606)
Cache L1D_008:	Size = 16384 B (32 Set x 4-way x 128 byte line)
		Access = 1939500, Miss = 1477884 (0.762), PendingHit = 119510 (0.0616)
Cache L1D_009:	Size = 16384 B (32 Set x 4-way x 128 byte line)
		Access = 1932000, Miss = 1473517 (0.763), PendingHit = 123176 (0.0638)
Cache L1D_010:	Size = 16384 B (32 Set x 4-way x 128 byte line)
		Access = 1900500, Miss = 1504625 (0.792), PendingHit = 111811 (0.0588)
Cache L1D_011:	Size = 16384 B (32 Set x 4-way x 128 byte line)
		Access = 1923000, Miss = 1472820 (0.766), PendingHit = 119522 (0.0622)
Cache L1D_012:	Size = 16384 B (32 Set x 4-way x 128 byte line)
		Access = 1966500, Miss = 1450958 (0.738), PendingHit = 125569 (0.0639)
Cache L1D_013:	Size = 16384 B (32 Set x 4-way x 128 byte line)
		Access = 1899000, Miss = 1523376 (0.802), PendingHit = 110543 (0.0582)
total_dl1_misses=20728004
total_dl1_accesses=27000000
total_dl1_miss_rate= 0.767704
Shader 0 dynamic_warp_id issue ditsribution:
dynamic_warp_id:
0, 1, 2, 3, 4, 5, 6, 7, 8, 9, 10, 11, 12, 13, 14, 15, 16, 17, 18, 19, 20, 21, 22, 23, 24, 25, 26, 27, 28, 29, 30, 31, 32, 33, 34, 35, 36, 37, 38, 39, 40, 41, 42, 43, 44, 45, 46, 47, 48, 49, 50, 51, 52, 53, 54, 55, 56, 57, 58, 59, 60, 61, 62, 63, 64, 65, 66, 67, 68, 69, 70, 71, 72, 73, 74, 75, 76, 77, 78, 79, 80, 81, 82, 83, 84, 85, 86, 87, 88, 89, 90, 91, 92, 93, 94, 95, 96, 97, 98, 99, 100, 101, 102, 103, 104, 105, 106, 107, 108, 109, 110, 111, 112, 113, 114, 115, 116, 117, 118, 119, 120, 121, 122, 123, 124, 125, 126, 127, 128, 129, 130, 131, 132, 133, 134, 135, 136, 137, 138, 139, 140, 141, 142, 143, 144, 145, 146, 147, 148, 149, 150, 151, 152, 153, 154, 155, 156, 157, 158, 159, 160, 161, 162, 163, 164, 165, 166, 167, 168, 169, 170, 171, 172, 173, 174, 175, 176, 177, 178, 179, 180, 181, 182, 183, 184, 185, 186, 187, 188, 189, 190, 191, 192, 193, 194, 195, 196, 197, 198, 199, 200, 201, 202, 203, 204, 205, 206, 207, 208, 209, 210, 211, 212, 213, 214, 215, 216, 217, 218, 219, 220, 221, 222, 223, 224, 225, 226, 227, 228, 229, 230, 231, 232, 233, 234, 235, 236, 237, 238, 239, 240, 241, 242, 243, 244, 245, 246, 247, 248, 249, 250, 251, 252, 253, 254, 255, 256, 257, 258, 259, 260, 261, 262, 263, 264, 265, 266, 267, 268, 269, 270, 271, 272, 273, 274, 275, 276, 277, 278, 279, 280, 281, 282, 283, 284, 285, 286, 287, 288, 289, 290, 291, 292, 293, 294, 295, 296, 297, 298, 299, 300, 301, 302, 303, 304, 305, 306, 307, 308, 309, 310, 311, 312, 313, 314, 315, 316, 317, 318, 319, 320, 321, 322, 323, 324, 325, 326, 327, 328, 329, 330, 331, 332, 333, 334, 335, 336, 337, 338, 339, 340, 341, 342, 343, 344, 345, 346, 347, 348, 349, 350, 351, 352, 353, 354, 355, 356, 357, 358, 359, 360, 361, 362, 363, 364, 365, 366, 367, 368, 369, 370, 371, 372, 373, 374, 375, 376, 377, 378, 379, 380, 381, 382, 383, 384, 385, 386, 387, 388, 389, 390, 391, 392, 393, 394, 395, 396, 397, 398, 399, 400, 401, 402, 403, 404, 405, 406, 407, 408, 409, 410, 411, 412, 413, 414, 415, 416, 417, 418, 419, 420, 421, 422, 423, 424, 425, 426, 427, 428, 429, 430, 431, 432, 433, 434, 435, 436, 437, 438, 439, 440, 441, 442, 443, 444, 445, 446, 447, 448, 449, 450, 451, 452, 453, 454, 455, 456, 457, 458, 459, 460, 461, 462, 463, 464, 465, 466, 467, 468, 469, 470, 471, 472, 473, 474, 475, 476, 477, 478, 479, 480, 481, 482, 483, 484, 485, 486, 487, 488, 489, 490, 491, 492, 493, 494, 495, 496, 497, 498, 499, 500, 501, 502, 503, 504, 505, 506, 507, 508, 509, 510, 511, 512, 513, 514, 515, 516, 517, 518, 519, 520, 521, 522, 523, 524, 525, 526, 527, 528, 529, 530, 531, 532, 533, 534, 535, 536, 537, 538, 539, 540, 541, 542, 543, 544, 545, 546, 547, 548, 549, 550, 551, 552, 553, 554, 555, 556, 557, 558, 559, 560, 561, 562, 563, 564, 565, 566, 567, 568, 569, 570, 571, 572, 573, 574, 575, 576, 577, 578, 579, 580, 581, 582, 583, 584, 585, 586, 587, 588, 589, 590, 591, 592, 593, 594, 595, 596, 597, 598, 599, 600, 601, 602, 603, 604, 605, 606, 607, 608, 609, 610, 611, 612, 613, 614, 615, 616, 617, 618, 619, 620, 621, 622, 623, 624, 625, 626, 627, 628, 629, 630, 631, 632, 633, 634, 635, 636, 637, 638, 639, 640, 641, 642, 643, 644, 645, 646, 647, 648, 649, 650, 651, 652, 653, 654, 655, 656, 657, 658, 659, 660, 661, 662, 663, 664, 665, 666, 667, 668, 669, 670, 671, 672, 673, 674, 675, 676, 677, 678, 679, 680, 681, 682, 683, 684, 685, 686, 687, 688, 689, 690, 691, 692, 693, 694, 695, 696, 697, 698, 699, 700, 701, 702, 703, 704, 705, 706, 707, 708, 709, 710, 711, 712, 713, 714, 715, 716, 717, 718, 719, 720, 721, 722, 723, 724, 725, 726, 727, 728, 729, 730, 731, 732, 733, 734, 735, 736, 737, 738, 739, 740, 741, 742, 743, 744, 745, 746, 747, 748, 749, 750, 751, 752, 753, 754, 755, 756, 757, 758, 759, 760, 761, 762, 763, 764, 765, 766, 767, 768, 769, 770, 771, 772, 773, 774, 775, 776, 777, 778, 779, 780, 781, 782, 783, 784, 785, 786, 787, 788, 789, 790, 791, 792, 793, 794, 795, 796, 797, 798, 799, 800, 801, 802, 803, 804, 805, 806, 807, 808, 809, 810, 811, 812, 813, 814, 815, 816, 817, 818, 819, 820, 821, 822, 823, 824, 825, 826, 827, 828, 829, 830, 831, 832, 833, 834, 835, 836, 837, 838, 839, 840, 841, 842, 843, 844, 845, 846, 847, 848, 849, 850, 851, 852, 853, 854, 855, 856, 857, 858, 859, 860, 861, 862, 863, 864, 865, 866, 867, 868, 869, 870, 871, 872, 873, 874, 875, 876, 877, 878, 879, 880, 881, 882, 883, 884, 885, 886, 887, 888, 889, 890, 891, 892, 893, 894, 895, 896, 897, 898, 899, 900, 901, 902, 903, 904, 905, 906, 907, 908, 909, 910, 911, 912, 913, 914, 915, 916, 917, 918, 919, 920, 921, 922, 923, 924, 925, 926, 927, 928, 929, 930, 931, 932, 933, 934, 935, 936, 937, 938, 939, 940, 941, 942, 943, 944, 945, 946, 947, 948, 949, 950, 951, 952, 953, 954, 955, 956, 957, 958, 959, 960, 961, 962, 963, 964, 965, 966, 967, 968, 969, 970, 971, 972, 973, 974, 975, 976, 977, 978, 979, 980, 981, 982, 983, 984, 985, 986, 987, 988, 989, 990, 991, 992, 993, 994, 995, 996, 997, 998, 999, 1000, 1001, 1002, 1003, 1004, 1005, 1006, 1007, 1008, 1009, 1010, 1011, 1012, 1013, 1014, 1015, 1016, 1017, 1018, 1019, 1020, 1021, 1022, 1023, 1024, 1025, 1026, 1027, 1028, 1029, 1030, 1031, 1032, 1033, 1034, 1035, 1036, 1037, 1038, 1039, 1040, 1041, 1042, 1043, 1044, 1045, 1046, 1047, 1048, 1049, 1050, 1051, 1052, 1053, 1054, 1055, 1056, 1057, 1058, 1059, 1060, 1061, 1062, 1063, 1064, 1065, 1066, 1067, 1068, 1069, 1070, 1071, 1072, 1073, 1074, 1075, 1076, 1077, 1078, 1079, 1080, 1081, 1082, 1083, 1084, 1085, 1086, 1087, 1088, 1089, 1090, 1091, 1092, 1093, 1094, 1095, 1096, 1097, 1098, 1099, 1100, 1101, 1102, 1103, 1104, 1105, 1106, 1107, 1108, 1109, 1110, 1111, 1112, 1113, 1114, 1115, 1116, 1117, 1118, 1119, 1120, 1121, 1122, 1123, 1124, 1125, 1126, 1127, 1128, 1129, 1130, 1131, 1132, 1133, 1134, 1135, 1136, 1137, 1138, 1139, 1140, 1141, 1142, 1143, 1144, 1145, 1146, 1147, 1148, 1149, 1150, 1151, 1152, 1153, 1154, 1155, 1156, 1157, 1158, 1159, 1160, 1161, 1162, 1163, 1164, 1165, 1166, 1167, 1168, 1169, 1170, 1171, 1172, 1173, 1174, 1175, 1176, 1177, 1178, 1179, 1180, 1181, 1182, 1183, 1184, 1185, 1186, 1187, 1188, 1189, 1190, 1191, 1192, 1193, 1194, 1195, 1196, 1197, 1198, 1199, 1200, 1201, 1202, 1203, 1204, 1205, 1206, 1207, 1208, 1209, 1210, 1211, 1212, 1213, 1214, 1215, 1216, 1217, 1218, 1219, 1220, 1221, 1222, 1223, 1224, 1225, 1226, 1227, 1228, 1229, 1230, 1231, 1232, 1233, 1234, 1235, 1236, 1237, 1238, 1239, 1240, 1241, 1242, 1243, 1244, 1245, 1246, 1247, 1248, 1249, 1250, 1251, 1252, 1253, 1254, 1255, 1256, 1257, 1258, 1259, 1260, 1261, 1262, 1263, 1264, 1265, 1266, 1267, 1268, 1269, 1270, 1271, 1272, 1273, 1274, 1275, 1276, 1277, 1278, 1279, 1280, 1281, 1282, 1283, 1284, 1285, 1286, 1287, 1288, 1289, 1290, 1291, 1292, 1293, 1294, 1295, 1296, 1297, 1298, 1299, 1300, 1301, 1302, 1303, 1304, 1305, 1306, 1307, 1308, 1309, 1310, 1311, 1312, 1313, 1314, 1315, 1316, 1317, 1318, 1319, 1320, 1321, 1322, 1323, 1324, 1325, 1326, 1327, 1328, 1329, 1330, 1331, 1332, 1333, 1334, 1335, 1336, 1337, 1338, 1339, 1340, 1341, 1342, 1343, 1344, 1345, 1346, 1347, 1348, 1349, 1350, 1351, 1352, 1353, 1354, 1355, 1356, 1357, 1358, 1359, 1360, 1361, 1362, 1363, 1364, 1365, 1366, 1367, 1368, 1369, 1370, 1371, 1372, 1373, 1374, 1375, 1376, 1377, 1378, 1379, 1380, 1381, 1382, 1383, 1384, 1385, 1386, 1387, 1388, 1389, 1390, 1391, 1392, 1393, 1394, 1395, 1396, 1397, 1398, 1399, 1400, 1401, 1402, 1403, 1404, 1405, 1406, 1407, 1408, 1409, 1410, 1411, 1412, 1413, 1414, 1415, 1416, 1417, 1418, 1419, 1420, 1421, 1422, 1423, 1424, 1425, 1426, 1427, 1428, 1429, 1430, 1431, 1432, 1433, 1434, 1435, 1436, 1437, 1438, 1439, 1440, 1441, 1442, 1443, 1444, 1445, 1446, 1447, 1448, 1449, 1450, 1451, 1452, 1453, 1454, 1455, 1456, 1457, 1458, 1459, 1460, 1461, 1462, 1463, 1464, 1465, 1466, 1467, 1468, 1469, 1470, 1471, 1472, 1473, 1474, 1475, 1476, 1477, 1478, 1479, 1480, 1481, 1482, 1483, 1484, 1485, 1486, 1487, 1488, 1489, 1490, 1491, 1492, 1493, 1494, 1495, 1496, 1497, 1498, 1499, 1500, 1501, 1502, 1503, 1504, 1505, 1506, 1507, 1508, 1509, 1510, 1511, 1512, 1513, 1514, 1515, 1516, 1517, 1518, 1519, 1520, 1521, 1522, 1523, 1524, 1525, 1526, 1527, 1528, 1529, 1530, 1531, 1532, 1533, 1534, 1535, 1536, 1537, 1538, 1539, 1540, 1541, 1542, 1543, 1544, 1545, 1546, 1547, 1548, 1549, 1550, 1551, 1552, 1553, 1554, 1555, 1556, 1557, 1558, 1559, 1560, 1561, 1562, 1563, 1564, 1565, 1566, 1567, 1568, 1569, 1570, 1571, 1572, 1573, 1574, 1575, 1576, 1577, 1578, 1579, 1580, 1581, 1582, 1583, 1584, 1585, 1586, 1587, 1588, 1589, 1590, 1591, 1592, 1593, 1594, 1595, 1596, 1597, 1598, 1599, 1600, 1601, 1602, 1603, 1604, 1605, 1606, 1607, 1608, 1609, 1610, 1611, 1612, 1613, 1614, 1615, 1616, 1617, 1618, 1619, 1620, 1621, 1622, 1623, 1624, 1625, 1626, 1627, 1628, 1629, 1630, 1631, 1632, 1633, 1634, 1635, 1636, 1637, 1638, 1639, 1640, 1641, 1642, 1643, 1644, 1645, 1646, 1647, 1648, 1649, 1650, 1651, 1652, 1653, 1654, 1655, 1656, 1657, 1658, 1659, 1660, 1661, 1662, 1663, 1664, 1665, 1666, 1667, 1668, 1669, 1670, 1671, 1672, 1673, 1674, 1675, 1676, 1677, 1678, 1679, 1680, 1681, 1682, 1683, 1684, 1685, 1686, 1687, 1688, 1689, 1690, 1691, 1692, 1693, 1694, 1695, 1696, 1697, 1698, 1699, 1700, 1701, 1702, 1703, 1704, 1705, 1706, 1707, 1708, 1709, 1710, 1711, 1712, 1713, 1714, 1715, 1716, 1717, 1718, 1719, 1720, 1721, 1722, 1723, 1724, 1725, 1726, 1727, 1728, 1729, 1730, 1731, 1732, 1733, 1734, 1735, 1736, 1737, 1738, 1739, 1740, 1741, 1742, 1743, 1744, 1745, 1746, 1747, 1748, 1749, 1750, 1751, 1752, 1753, 1754, 1755, 1756, 1757, 1758, 1759, 1760, 1761, 1762, 1763, 1764, 1765, 1766, 1767, 1768, 1769, 1770, 1771, 1772, 1773, 1774, 1775, 1776, 1777, 1778, 1779, 1780, 1781, 1782, 1783, 1784, 1785, 1786, 1787, 1788, 1789, 1790, 1791, 1792, 1793, 1794, 1795, 1796, 1797, 1798, 1799, 1800, 1801, 1802, 1803, 1804, 1805, 1806, 1807, 1808, 1809, 1810, 1811, 1812, 1813, 1814, 1815, 1816, 1817, 1818, 1819, 1820, 1821, 1822, 1823, 1824, 1825, 1826, 1827, 1828, 1829, 1830, 1831, 1832, 1833, 1834, 1835, 1836, 1837, 1838, 1839, 1840, 1841, 1842, 1843, 1844, 1845, 1846, 1847, 1848, 1849, 1850, 1851, 1852, 1853, 1854, 1855, 1856, 1857, 1858, 1859, 1860, 1861, 1862, 1863, 1864, 1865, 1866, 1867, 1868, 1869, 1870, 1871, 1872, 1873, 1874, 1875, 1876, 1877, 1878, 1879, 1880, 1881, 1882, 1883, 1884, 1885, 1886, 1887, 1888, 1889, 1890, 1891, 1892, 1893, 1894, 1895, 1896, 1897, 1898, 1899, 1900, 1901, 1902, 1903, 1904, 1905, 1906, 1907, 1908, 1909, 1910, 1911, 1912, 1913, 1914, 1915, 1916, 1917, 1918, 1919, 1920, 1921, 1922, 1923, 1924, 1925, 1926, 1927, 1928, 1929, 1930, 1931, 1932, 1933, 1934, 1935, 1936, 1937, 1938, 1939, 1940, 1941, 1942, 1943, 1944, 1945, 1946, 1947, 1948, 1949, 1950, 1951, 1952, 1953, 1954, 1955, 1956, 1957, 1958, 1959, 1960, 1961, 1962, 1963, 1964, 1965, 1966, 1967, 1968, 1969, 1970, 1971, 1972, 1973, 1974, 1975, 1976, 1977, 1978, 1979, 1980, 1981, 1982, 1983, 1984, 1985, 1986, 1987, 1988, 1989, 1990, 1991, 1992, 1993, 1994, 1995, 1996, 1997, 1998, 1999, 2000, 2001, 2002, 2003, 2004, 2005, 2006, 2007, 2008, 2009, 2010, 2011, 2012, 2013, 2014, 2015, 2016, 2017, 2018, 2019, 2020, 2021, 2022, 2023, 2024, 2025, 2026, 2027, 2028, 2029, 2030, 2031, 2032, 2033, 2034, 2035, 2036, 2037, 2038, 2039, 2040, 2041, 2042, 2043, 2044, 2045, 2046, 2047, 2048, 2049, 2050, 2051, 2052, 2053, 2054, 2055, 2056, 2057, 2058, 2059, 2060, 2061, 2062, 2063, 2064, 2065, 2066, 2067, 2068, 2069, 2070, 2071, 2072, 2073, 2074, 2075, 2076, 2077, 2078, 2079, 2080, 2081, 2082, 2083, 2084, 2085, 2086, 2087, 2088, 2089, 2090, 2091, 2092, 2093, 2094, 2095, 2096, 2097, 2098, 2099, 2100, 2101, 2102, 2103, 2104, 2105, 2106, 2107, 2108, 2109, 2110, 2111, 2112, 2113, 2114, 2115, 2116, 2117, 2118, 2119, 2120, 2121, 2122, 2123, 2124, 2125, 2126, 2127, 2128, 2129, 2130, 2131, 2132, 2133, 2134, 2135, 2136, 2137, 2138, 2139, 2140, 2141, 2142, 2143, 2144, 2145, 2146, 2147, 2148, 2149, 2150, 2151, 2152, 2153, 2154, 2155, 2156, 2157, 2158, 2159, 2160, 2161, 2162, 2163, 2164, 2165, 2166, 2167, 2168, 2169, 2170, 2171, 2172, 2173, 2174, 2175, 2176, 2177, 2178, 2179, 2180, 2181, 2182, 2183, 2184, 2185, 2186, 2187, 2188, 2189, 2190, 2191, 2192, 2193, 2194, 2195, 2196, 2197, 2198, 2199, 2200, 2201, 2202, 2203, 2204, 2205, 2206, 2207, 2208, 2209, 2210, 2211, 2212, 2213, 2214, 2215, 2216, 2217, 2218, 2219, 2220, 2221, 2222, 2223, 2224, 2225, 2226, 2227, 2228, 2229, 2230, 2231, 2232, 2233, 2234, 2235, 2236, 2237, 2238, 2239, 2240, 2241, 2242, 2243, 2244, 2245, 2246, 2247, 2248, 2249, 2250, 2251, 2252, 2253, 2254, 2255, 2256, 2257, 2258, 2259, 2260, 2261, 2262, 2263, 2264, 2265, 2266, 2267, 2268, 2269, 2270, 2271, 2272, 2273, 2274, 2275, 2276, 2277, 2278, 2279, 2280, 2281, 2282, 2283, 2284, 2285, 2286, 2287, 2288, 2289, 2290, 2291, 2292, 2293, 2294, 2295, 2296, 2297, 2298, 2299, 2300, 2301, 2302, 2303, 2304, 2305, 2306, 2307, 2308, 2309, 2310, 2311, 2312, 2313, 2314, 2315, 2316, 2317, 2318, 2319, 2320, 2321, 2322, 2323, 2324, 2325, 2326, 2327, 2328, 2329, 2330, 2331, 2332, 2333, 2334, 2335, 2336, 2337, 2338, 2339, 2340, 2341, 2342, 2343, 2344, 2345, 2346, 2347, 2348, 2349, 2350, 2351, 2352, 2353, 2354, 2355, 2356, 2357, 2358, 2359, 2360, 2361, 2362, 2363, 2364, 2365, 2366, 2367, 2368, 2369, 2370, 2371, 2372, 2373, 2374, 2375, 2376, 2377, 2378, 2379, 2380, 2381, 2382, 2383, 2384, 2385, 2386, 2387, 2388, 2389, 2390, 2391, 2392, 2393, 2394, 2395, 2396, 2397, 2398, 2399, 2400, 2401, 2402, 2403, 2404, 2405, 2406, 2407, 2408, 2409, 2410, 2411, 2412, 2413, 2414, 2415, 2416, 2417, 2418, 2419, 2420, 2421, 2422, 2423, 2424, 2425, 2426, 2427, 2428, 2429, 2430, 2431, 2432, 2433, 2434, 2435, 2436, 2437, 2438, 2439, 2440, 2441, 2442, 2443, 2444, 2445, 2446, 2447, 2448, 2449, 2450, 2451, 2452, 2453, 2454, 2455, 2456, 2457, 2458, 2459, 2460, 2461, 2462, 2463, 2464, 2465, 2466, 2467, 2468, 2469, 2470, 2471, 2472, 2473, 2474, 2475, 2476, 2477, 2478, 2479, 2480, 2481, 2482, 2483, 2484, 2485, 2486, 2487, 2488, 2489, 2490, 2491, 2492, 2493, 2494, 2495, 2496, 2497, 2498, 2499, 2500, 2501, 2502, 2503, 2504, 2505, 2506, 2507, 2508, 2509, 2510, 2511, 2512, 2513, 2514, 2515, 2516, 2517, 2518, 2519, 2520, 2521, 2522, 2523, 2524, 2525, 2526, 2527, 2528, 2529, 2530, 2531, 2532, 2533, 2534, 2535, 2536, 2537, 2538, 2539, 2540, 2541, 2542, 2543, 2544, 2545, 2546, 2547, 2548, 2549, 2550, 2551, 2552, 2553, 2554, 2555, 2556, 2557, 2558, 2559, 2560, 2561, 2562, 2563, 2564, 2565, 2566, 2567, 2568, 2569, 2570, 2571, 2572, 2573, 2574, 2575, 2576, 2577, 2578, 2579, 2580, 2581, 2582, 2583, 2584, 2585, 2586, 2587, 2588, 2589, 2590, 2591, 2592, 2593, 2594, 2595, 2596, 2597, 2598, 2599, 2600, 2601, 2602, 2603, 2604, 2605, 2606, 2607, 2608, 2609, 2610, 2611, 2612, 2613, 2614, 2615, 2616, 2617, 2618, 2619, 2620, 2621, 2622, 2623, 2624, 2625, 2626, 2627, 2628, 2629, 2630, 2631, 2632, 2633, 2634, 2635, 2636, 2637, 2638, 2639, 2640, 2641, 2642, 2643, 2644, 2645, 2646, 2647, 2648, 2649, 2650, 2651, 2652, 2653, 2654, 2655, 2656, 2657, 2658, 2659, 2660, 2661, 2662, 2663, 2664, 2665, 2666, 2667, 2668, 2669, 2670, 2671, 2672, 2673, 2674, 2675, 2676, 2677, 2678, 2679, 2680, 2681, 2682, 2683, 2684, 2685, 2686, 2687, 2688, 2689, 2690, 2691, 2692, 2693, 2694, 2695, 2696, 2697, 2698, 2699, 2700, 2701, 2702, 2703, 2704, 2705, 2706, 2707, 2708, 2709, 2710, 2711, 2712, 2713, 2714, 2715, 2716, 2717, 2718, 2719, 2720, 2721, 2722, 2723, 2724, 2725, 2726, 2727, 2728, 2729, 2730, 2731, 2732, 2733, 2734, 2735, 2736, 2737, 2738, 2739, 2740, 2741, 2742, 2743, 2744, 2745, 2746, 2747, 2748, 2749, 2750, 2751, 2752, 2753, 2754, 2755, 2756, 2757, 2758, 2759, 2760, 2761, 2762, 2763, 2764, 2765, 2766, 2767, 2768, 2769, 2770, 2771, 2772, 2773, 2774, 2775, 2776, 2777, 2778, 2779, 2780, 2781, 2782, 2783, 2784, 2785, 2786, 2787, 2788, 2789, 2790, 2791, 2792, 2793, 2794, 2795, 2796, 2797, 2798, 2799, 2800, 2801, 2802, 2803, 2804, 2805, 2806, 2807, 2808, 2809, 2810, 2811, 2812, 2813, 2814, 2815, 2816, 2817, 2818, 2819, 2820, 2821, 2822, 2823, 2824, 2825, 2826, 2827, 2828, 2829, 2830, 2831, 2832, 2833, 2834, 2835, 2836, 2837, 2838, 2839, 2840, 2841, 2842, 2843, 2844, 2845, 2846, 2847, 2848, 2849, 2850, 2851, 2852, 2853, 2854, 2855, 2856, 2857, 2858, 2859, 2860, 2861, 2862, 2863, 2864, 2865, 2866, 2867, 2868, 2869, 2870, 2871, 2872, 2873, 2874, 2875, 2876, 2877, 2878, 2879, 2880, 2881, 2882, 2883, 2884, 2885, 2886, 2887, 2888, 2889, 2890, 2891, 2892, 2893, 2894, 2895, 2896, 2897, 2898, 2899, 2900, 2901, 2902, 2903, 2904, 2905, 2906, 2907, 2908, 2909, 2910, 2911, 2912, 2913, 2914, 2915, 2916, 2917, 2918, 2919, 2920, 2921, 2922, 2923, 2924, 2925, 2926, 2927, 2928, 2929, 2930, 2931, 2932, 2933, 2934, 2935, 2936, 2937, 2938, 2939, 2940, 2941, 2942, 2943, 2944, 2945, 2946, 2947, 2948, 2949, 2950, 2951, 2952, 2953, 2954, 2955, 2956, 2957, 2958, 2959, 2960, 2961, 2962, 2963, 2964, 2965, 2966, 2967, 2968, 2969, 2970, 2971, 2972, 2973, 2974, 2975, 2976, 2977, 2978, 2979, 2980, 2981, 2982, 2983, 2984, 2985, 2986, 2987, 2988, 2989, 2990, 2991, 2992, 2993, 2994, 2995, 2996, 2997, 2998, 2999, 3000, 3001, 3002, 3003, 3004, 3005, 3006, 3007, 3008, 3009, 3010, 3011, 3012, 3013, 3014, 3015, 3016, 3017, 3018, 3019, 3020, 3021, 3022, 3023, 3024, 3025, 3026, 3027, 3028, 3029, 3030, 3031, 3032, 3033, 3034, 3035, 3036, 3037, 3038, 3039, 3040, 3041, 3042, 3043, 3044, 3045, 3046, 3047, 3048, 3049, 3050, 3051, 3052, 3053, 3054, 3055, 3056, 3057, 3058, 3059, 3060, 3061, 3062, 3063, 3064, 3065, 3066, 3067, 3068, 3069, 3070, 3071, 3072, 3073, 3074, 3075, 3076, 3077, 3078, 3079, 3080, 3081, 3082, 3083, 3084, 3085, 3086, 3087, 3088, 3089, 3090, 3091, 3092, 3093, 3094, 3095, 3096, 3097, 3098, 3099, 3100, 3101, 3102, 3103, 3104, 3105, 3106, 3107, 3108, 3109, 3110, 3111, 3112, 3113, 3114, 3115, 3116, 3117, 3118, 3119, 3120, 3121, 3122, 3123, 3124, 3125, 3126, 3127, 3128, 3129, 3130, 3131, 3132, 3133, 3134, 3135, 3136, 3137, 3138, 3139, 3140, 3141, 3142, 3143, 3144, 3145, 3146, 3147, 3148, 3149, 3150, 3151, 3152, 3153, 3154, 3155, 3156, 3157, 3158, 3159, 3160, 3161, 3162, 3163, 3164, 3165, 3166, 3167, 3168, 3169, 3170, 3171, 3172, 3173, 3174, 3175, 3176, 3177, 3178, 3179, 3180, 3181, 3182, 3183, 3184, 3185, 3186, 3187, 3188, 3189, 3190, 3191, 3192, 3193, 3194, 3195, 3196, 3197, 3198, 3199, 3200, 3201, 3202, 3203, 3204, 3205, 3206, 3207, 3208, 3209, 3210, 3211, 3212, 3213, 3214, 3215, 3216, 3217, 3218, 3219, 3220, 3221, 3222, 3223, 3224, 3225, 3226, 3227, 3228, 3229, 3230, 3231, 3232, 3233, 3234, 3235, 3236, 3237, 3238, 3239, 3240, 3241, 3242, 3243, 3244, 3245, 3246, 3247, 3248, 3249, 3250, 3251, 3252, 3253, 3254, 3255, 3256, 3257, 3258, 3259, 3260, 3261, 3262, 3263, 3264, 3265, 3266, 3267, 3268, 3269, 3270, 3271, 3272, 3273, 3274, 3275, 3276, 3277, 3278, 3279, 3280, 3281, 3282, 3283, 3284, 3285, 3286, 3287, 3288, 3289, 3290, 3291, 3292, 3293, 3294, 3295, 3296, 3297, 3298, 3299, 3300, 3301, 3302, 3303, 3304, 3305, 3306, 3307, 3308, 3309, 3310, 3311, 3312, 3313, 3314, 3315, 3316, 3317, 3318, 3319, 3320, 3321, 3322, 3323, 3324, 3325, 3326, 3327, 3328, 3329, 3330, 3331, 3332, 3333, 3334, 3335, 3336, 3337, 3338, 3339, 3340, 3341, 3342, 3343, 3344, 3345, 3346, 3347, 3348, 3349, 3350, 3351, 3352, 3353, 3354, 3355, 3356, 3357, 3358, 3359, 3360, 3361, 3362, 3363, 3364, 3365, 3366, 3367, 3368, 3369, 3370, 3371, 3372, 3373, 3374, 3375, 3376, 3377, 3378, 3379, 3380, 3381, 3382, 3383, 3384, 3385, 3386, 3387, 3388, 3389, 3390, 3391, 3392, 3393, 3394, 3395, 3396, 3397, 3398, 3399, 3400, 3401, 3402, 3403, 3404, 3405, 3406, 3407, 3408, 3409, 3410, 3411, 3412, 3413, 3414, 3415, 3416, 3417, 3418, 3419, 3420, 3421, 3422, 3423, 3424, 3425, 3426, 3427, 3428, 3429, 3430, 3431, 3432, 3433, 3434, 3435, 3436, 3437, 3438, 3439, 3440, 3441, 3442, 3443, 3444, 3445, 3446, 3447, 3448, 3449, 3450, 3451, 3452, 3453, 3454, 3455, 3456, 3457, 3458, 3459, 3460, 3461, 3462, 3463, 3464, 3465, 3466, 3467, 3468, 3469, 3470, 3471, 3472, 3473, 3474, 3475, 3476, 3477, 3478, 3479, 3480, 3481, 3482, 3483, 3484, 3485, 3486, 3487, 3488, 3489, 3490, 3491, 3492, 3493, 3494, 3495, 3496, 3497, 3498, 3499, 3500, 3501, 3502, 3503, 3504, 3505, 3506, 3507, 3508, 3509, 3510, 3511, 3512, 3513, 3514, 3515, 3516, 3517, 3518, 3519, 3520, 3521, 3522, 3523, 3524, 3525, 3526, 3527, 3528, 3529, 3530, 3531, 3532, 3533, 3534, 3535, 3536, 3537, 3538, 3539, 3540, 3541, 3542, 3543, 3544, 3545, 3546, 3547, 3548, 3549, 3550, 3551, 3552, 3553, 3554, 3555, 3556, 3557, 3558, 3559, 3560, 3561, 3562, 3563, 3564, 3565, 3566, 3567, 3568, 3569, 3570, 3571, 3572, 3573, 3574, 3575, 3576, 3577, 3578, 3579, 3580, 3581, 3582, 3583, 3584, 3585, 3586, 3587, 3588, 3589, 3590, 3591, 3592, 3593, 3594, 3595, 3596, 3597, 3598, 3599, 3600, 3601, 3602, 3603, 3604, 3605, 3606, 3607, 3608, 3609, 3610, 3611, 3612, 3613, 3614, 3615, 3616, 3617, 3618, 3619, 3620, 3621, 3622, 3623, 3624, 3625, 3626, 3627, 3628, 3629, 3630, 3631, 3632, 3633, 3634, 3635, 3636, 3637, 3638, 3639, 3640, 3641, 3642, 3643, 3644, 3645, 3646, 3647, 3648, 3649, 3650, 3651, 3652, 3653, 3654, 3655, 3656, 3657, 3658, 3659, 3660, 3661, 3662, 3663, 3664, 3665, 3666, 3667, 3668, 3669, 3670, 3671, 3672, 3673, 3674, 3675, 3676, 3677, 3678, 3679, 3680, 3681, 3682, 3683, 3684, 3685, 3686, 3687, 3688, 3689, 3690, 3691, 3692, 3693, 3694, 3695, 3696, 3697, 3698, 3699, 3700, 3701, 3702, 3703, 3704, 3705, 3706, 3707, 3708, 3709, 3710, 3711, 3712, 3713, 3714, 3715, 3716, 3717, 3718, 3719, 3720, 3721, 3722, 3723, 3724, 3725, 3726, 3727, 3728, 3729, 3730, 3731, 3732, 3733, 3734, 3735, 3736, 3737, 3738, 3739, 3740, 3741, 3742, 3743, 3744, 3745, 3746, 3747, 3748, 3749, 3750, 3751, 3752, 3753, 3754, 3755, 3756, 3757, 3758, 3759, 3760, 3761, 3762, 3763, 3764, 3765, 3766, 3767, 3768, 3769, 3770, 3771, 3772, 3773, 3774, 3775, 3776, 3777, 3778, 3779, 3780, 3781, 3782, 3783, 3784, 3785, 3786, 3787, 3788, 3789, 3790, 3791, 3792, 3793, 3794, 3795, 3796, 3797, 3798, 3799, 3800, 3801, 3802, 3803, 3804, 3805, 3806, 3807, 3808, 3809, 3810, 3811, 3812, 3813, 3814, 3815, 3816, 3817, 3818, 3819, 3820, 3821, 3822, 3823, 3824, 3825, 3826, 3827, 3828, 3829, 3830, 3831, 3832, 3833, 3834, 3835, 3836, 3837, 3838, 3839, 3840, 3841, 3842, 3843, 3844, 3845, 3846, 3847, 3848, 3849, 3850, 3851, 3852, 3853, 3854, 3855, 3856, 3857, 3858, 3859, 3860, 3861, 3862, 3863, 3864, 3865, 3866, 3867, 3868, 3869, 3870, 3871, 3872, 3873, 3874, 3875, 3876, 3877, 3878, 3879, 3880, 3881, 3882, 3883, 3884, 3885, 3886, 3887, 3888, 3889, 3890, 3891, 3892, 3893, 3894, 3895, 3896, 3897, 3898, 3899, 3900, 3901, 3902, 3903, 3904, 3905, 3906, 3907, 3908, 3909, 3910, 3911, 3912, 3913, 3914, 3915, 3916, 3917, 3918, 3919, 3920, 3921, 3922, 3923, 3924, 3925, 3926, 3927, 3928, 3929, 3930, 3931, 3932, 3933, 3934, 3935, 3936, 3937, 3938, 3939, 3940, 3941, 3942, 3943, 3944, 3945, 3946, 3947, 3948, 3949, 3950, 3951, 3952, 3953, 3954, 3955, 3956, 3957, 3958, 3959, 3960, 3961, 3962, 3963, 3964, 3965, 3966, 3967, 3968, 3969, 3970, 3971, 3972, 3973, 3974, 3975, 3976, 3977, 3978, 3979, 3980, 3981, 3982, 3983, 3984, 3985, 3986, 3987, 3988, 3989, 3990, 3991, 3992, 3993, 3994, 3995, 3996, 3997, 3998, 3999, 4000, 4001, 4002, 4003, 4004, 4005, 4006, 4007, 4008, 4009, 4010, 4011, 4012, 4013, 4014, 4015, 4016, 4017, 4018, 4019, 4020, 4021, 4022, 4023, 4024, 4025, 4026, 4027, 4028, 4029, 4030, 4031, 4032, 4033, 4034, 4035, 4036, 4037, 4038, 4039, 4040, 4041, 4042, 4043, 4044, 4045, 4046, 4047, 4048, 4049, 4050, 4051, 4052, 4053, 4054, 4055, 4056, 4057, 4058, 4059, 4060, 4061, 4062, 4063, 4064, 4065, 4066, 4067, 4068, 4069, 4070, 4071, 4072, 4073, 4074, 4075, 4076, 4077, 4078, 4079, 4080, 4081, 4082, 4083, 4084, 4085, 4086, 4087, 4088, 4089, 4090, 4091, 4092, 4093, 4094, 4095, 4096, 4097, 4098, 4099, 4100, 4101, 4102, 4103, 4104, 4105, 4106, 4107, 4108, 4109, 4110, 4111, 4112, 4113, 4114, 4115, 4116, 4117, 4118, 4119, 4120, 4121, 4122, 4123, 4124, 4125, 4126, 4127, 4128, 4129, 4130, 4131, 4132, 4133, 4134, 4135, 4136, 4137, 4138, 4139, 4140, 4141, 4142, 4143, 4144, 4145, 4146, 4147, 4148, 4149, 4150, 4151, 4152, 4153, 4154, 4155, 4156, 4157, 4158, 4159, 4160, 4161, 4162, 4163, 4164, 4165, 4166, 4167, 4168, 4169, 4170, 4171, 4172, 4173, 4174, 4175, 4176, 4177, 4178, 4179, 4180, 4181, 4182, 4183, 4184, 4185, 4186, 4187, 4188, 4189, 4190, 4191, 4192, 4193, 4194, 4195, 4196, 4197, 4198, 4199, 4200, 4201, 4202, 4203, 4204, 4205, 4206, 4207, 4208, 4209, 4210, 4211, 4212, 4213, 4214, 4215, 4216, 4217, 4218, 4219, 4220, 4221, 4222, 4223, 4224, 4225, 4226, 4227, 4228, 4229, 4230, 4231, 4232, 4233, 4234, 4235, 4236, 4237, 4238, 4239, 4240, 4241, 4242, 4243, 4244, 4245, 4246, 4247, 4248, 4249, 4250, 4251, 4252, 4253, 4254, 4255, 4256, 4257, 4258, 4259, 4260, 4261, 4262, 4263, 4264, 4265, 4266, 4267, 4268, 4269, 4270, 4271, 4272, 4273, 4274, 4275, 4276, 4277, 4278, 4279, 4280, 4281, 4282, 4283, 4284, 4285, 4286, 4287, 4288, 4289, 4290, 4291, 4292, 4293, 4294, 4295, 4296, 4297, 4298, 4299, 4300, 4301, 4302, 4303, 4304, 4305, 4306, 4307, 4308, 4309, 4310, 4311, 4312, 4313, 4314, 4315, 4316, 4317, 4318, 4319, 4320, 4321, 4322, 4323, 4324, 4325, 4326, 4327, 4328, 4329, 4330, 4331, 4332, 4333, 4334, 4335, 4336, 4337, 4338, 4339, 4340, 4341, 4342, 4343, 4344, 4345, 4346, 4347, 4348, 4349, 4350, 4351, 4352, 4353, 4354, 4355, 4356, 4357, 4358, 4359, 4360, 4361, 4362, 4363, 4364, 4365, 4366, 4367, 4368, 4369, 4370, 4371, 4372, 4373, 4374, 4375, 4376, 4377, 4378, 4379, 4380, 4381, 4382, 4383, 4384, 4385, 4386, 4387, 4388, 4389, 4390, 4391, 4392, 4393, 4394, 4395, 4396, 4397, 4398, 4399, 4400, 4401, 4402, 4403, 4404, 4405, 4406, 4407, 4408, 4409, 4410, 4411, 4412, 4413, 4414, 4415, 4416, 4417, 4418, 4419, 4420, 4421, 4422, 4423, 4424, 4425, 4426, 4427, 4428, 4429, 4430, 4431, 4432, 4433, 4434, 4435, 4436, 4437, 4438, 4439, 4440, 4441, 4442, 4443, 4444, 4445, 4446, 4447, 4448, 4449, 4450, 4451, 4452, 4453, 4454, 4455, 4456, 4457, 4458, 4459, 4460, 4461, 4462, 4463, 4464, 4465, 4466, 4467, 4468, 4469, 4470, 4471, 4472, 4473, 4474, 4475, 4476, 4477, 4478, 4479, 4480, 4481, 4482, 4483, 4484, 4485, 4486, 4487, 4488, 4489, 4490, 4491, 4492, 4493, 4494, 4495, 4496, 4497, 4498, 4499, 4500, 4501, 4502, 4503, 4504, 4505, 4506, 4507, 4508, 4509, 4510, 4511, 4512, 4513, 4514, 4515, 4516, 4517, 4518, 4519, 4520, 4521, 4522, 4523, 4524, 4525, 4526, 4527, 4528, 4529, 4530, 4531, 4532, 4533, 4534, 4535, 4536, 4537, 4538, 4539, 4540, 4541, 4542, 4543, 4544, 4545, 4546, 4547, 4548, 4549, 4550, 4551, 4552, 4553, 4554, 4555, 4556, 4557, 4558, 4559, 4560, 4561, 4562, 4563, 4564, 4565, 4566, 4567, 4568, 4569, 4570, 4571, 4572, 4573, 4574, 4575, 4576, 4577, 4578, 4579, 4580, 4581, 4582, 4583, 4584, 4585, 4586, 4587, 4588, 4589, 4590, 4591, 4592, 4593, 4594, 4595, 4596, 4597, 4598, 4599, 4600, 4601, 4602, 4603, 4604, 4605, 4606, 4607, 4608, 4609, 4610, 4611, 4612, 4613, 4614, 4615, 4616, 4617, 4618, 4619, 4620, 4621, 4622, 4623, 4624, 4625, 4626, 4627, 4628, 4629, 4630, 4631, 4632, 4633, 4634, 4635, 4636, 4637, 4638, 4639, 4640, 4641, 4642, 4643, 4644, 4645, 4646, 4647, 4648, 4649, 4650, 4651, 4652, 4653, 4654, 4655, 4656, 4657, 4658, 4659, 4660, 4661, 4662, 4663, 4664, 4665, 4666, 4667, 4668, 4669, 4670, 4671, 4672, 4673, 4674, 4675, 4676, 4677, 4678, 4679, 4680, 4681, 4682, 4683, 4684, 4685, 4686, 4687, 4688, 4689, 4690, 4691, 4692, 4693, 4694, 4695, 4696, 4697, 4698, 4699, 4700, 4701, 4702, 4703, 4704, 4705, 4706, 4707, 4708, 4709, 4710, 4711, 4712, 4713, 4714, 4715, 4716, 4717, 4718, 4719, 4720, 4721, 4722, 4723, 4724, 4725, 4726, 4727, 4728, 4729, 4730, 4731, 4732, 4733, 4734, 4735, 4736, 4737, 4738, 4739, 4740, 4741, 4742, 4743, 4744, 4745, 4746, 4747, 4748, 4749, 4750, 4751, 4752, 4753, 4754, 4755, 4756, 4757, 4758, 4759, 4760, 4761, 4762, 4763, 4764, 4765, 4766, 4767, 4768, 4769, 4770, 4771, 4772, 4773, 4774, 4775, 4776, 4777, 4778, 4779, 4780, 4781, 4782, 4783, 4784, 4785, 4786, 4787, 4788, 4789, 4790, 4791, 4792, 4793, 4794, 4795, 4796, 4797, 4798, 4799, 4800, 4801, 4802, 4803, 4804, 4805, 4806, 4807, 4808, 4809, 4810, 4811, 4812, 4813, 4814, 4815, 4816, 4817, 4818, 4819, 4820, 4821, 4822, 4823, 4824, 4825, 4826, 4827, 4828, 4829, 4830, 4831, 4832, 4833, 4834, 4835, 4836, 4837, 4838, 4839, 4840, 4841, 4842, 4843, 4844, 4845, 4846, 4847, 4848, 4849, 4850, 4851, 4852, 4853, 4854, 4855, 4856, 4857, 4858, 4859, 4860, 4861, 4862, 4863, 4864, 4865, 4866, 4867, 4868, 4869, 4870, 4871, 4872, 4873, 4874, 4875, 4876, 4877, 4878, 4879, 4880, 4881, 4882, 4883, 4884, 4885, 4886, 4887, 4888, 4889, 4890, 4891, 4892, 4893, 4894, 4895, 4896, 4897, 4898, 4899, 4900, 4901, 4902, 4903, 4904, 4905, 4906, 4907, 4908, 4909, 4910, 4911, 4912, 4913, 4914, 4915, 4916, 4917, 4918, 4919, 4920, 4921, 4922, 4923, 4924, 4925, 4926, 4927, 4928, 4929, 4930, 4931, 4932, 4933, 4934, 4935, 4936, 4937, 4938, 4939, 4940, 4941, 4942, 4943, 4944, 4945, 4946, 4947, 4948, 4949, 4950, 4951, 4952, 4953, 4954, 4955, 4956, 4957, 4958, 4959, 4960, 4961, 4962, 4963, 4964, 4965, 4966, 4967, 4968, 4969, 4970, 4971, 4972, 4973, 4974, 4975, 4976, 4977, 4978, 4979, 4980, 4981, 4982, 4983, 4984, 4985, 4986, 4987, 4988, 4989, 4990, 4991, 4992, 4993, 4994, 4995, 4996, 4997, 4998, 4999, 5000, 5001, 5002, 5003, 5004, 5005, 5006, 5007, 5008, 5009, 5010, 5011, 5012, 5013, 5014, 5015, 5016, 5017, 5018, 5019, 5020, 5021, 5022, 5023, 5024, 5025, 5026, 5027, 5028, 5029, 5030, 5031, 5032, 5033, 5034, 5035, 5036, 5037, 5038, 5039, 5040, 5041, 5042, 5043, 5044, 5045, 5046, 5047, 5048, 5049, 5050, 5051, 5052, 5053, 5054, 5055, 5056, 5057, 5058, 5059, 5060, 5061, 5062, 5063, 5064, 5065, 5066, 5067, 5068, 5069, 5070, 5071, 5072, 5073, 5074, 5075, 5076, 5077, 5078, 5079, 5080, 5081, 5082, 5083, 5084, 5085, 5086, 5087, 5088, 5089, 5090, 5091, 5092, 5093, 5094, 5095, 5096, 5097, 5098, 5099, 5100, 5101, 5102, 5103, 5104, 5105, 5106, 5107, 5108, 5109, 5110, 5111, 5112, 5113, 5114, 5115, 5116, 5117, 5118, 5119, 5120, 5121, 5122, 5123, 5124, 5125, 5126, 5127, 5128, 5129, 5130, 5131, 5132, 5133, 5134, 5135, 5136, 5137, 5138, 5139, 
distro:
88, 88, 88, 88, 88, 88, 88, 88, 88, 88, 88, 88, 88, 88, 88, 88, 88, 88, 88, 88, 88, 88, 88, 88, 88, 88, 88, 88, 88, 88, 88, 88, 88, 88, 88, 88, 317, 298, 298, 317, 317, 298, 298, 317, 317, 298, 298, 317, 317, 298, 298, 317, 317, 298, 298, 317, 317, 298, 298, 317, 317, 298, 298, 317, 317, 298, 298, 317, 314, 295, 295, 314, 314, 295, 295, 314, 314, 295, 295, 314, 314, 295, 295, 314, 314, 295, 295, 314, 314, 295, 295, 314, 314, 295, 295, 314, 314, 295, 295, 314, 314, 295, 295, 314, 314, 295, 295, 314, 314, 295, 295, 314, 314, 295, 295, 314, 314, 295, 295, 314, 314, 295, 295, 314, 314, 295, 295, 314, 314, 295, 295, 314, 314, 295, 295, 314, 314, 295, 295, 314, 314, 295, 295, 314, 314, 295, 295, 314, 314, 295, 295, 314, 314, 295, 295, 314, 314, 295, 295, 314, 314, 295, 295, 314, 314, 295, 295, 314, 314, 295, 295, 314, 314, 295, 295, 314, 314, 295, 295, 314, 314, 295, 295, 314, 314, 295, 295, 314, 314, 295, 295, 314, 314, 295, 295, 314, 314, 295, 295, 314, 314, 295, 295, 314, 314, 295, 295, 314, 314, 295, 295, 314, 314, 295, 295, 314, 314, 295, 295, 314, 314, 295, 295, 314, 314, 295, 295, 314, 314, 295, 295, 314, 314, 295, 295, 314, 314, 295, 295, 314, 314, 295, 295, 314, 314, 295, 295, 314, 314, 295, 295, 314, 314, 295, 295, 314, 314, 295, 295, 314, 314, 295, 295, 314, 314, 295, 295, 314, 314, 295, 295, 314, 314, 295, 295, 314, 314, 295, 295, 314, 314, 295, 295, 314, 314, 295, 295, 314, 314, 295, 295, 314, 314, 295, 295, 314, 314, 295, 295, 314, 314, 295, 295, 314, 314, 295, 295, 314, 314, 295, 295, 314, 314, 295, 295, 314, 314, 295, 295, 314, 314, 295, 295, 314, 314, 295, 295, 314, 314, 295, 295, 314, 314, 295, 295, 314, 314, 295, 295, 314, 314, 295, 295, 314, 314, 295, 295, 314, 314, 295, 295, 314, 314, 295, 295, 314, 314, 295, 295, 314, 314, 295, 295, 314, 314, 295, 295, 314, 314, 295, 295, 314, 314, 295, 295, 314, 314, 295, 295, 314, 314, 295, 295, 314, 314, 295, 295, 314, 314, 295, 295, 314, 314, 295, 295, 314, 314, 295, 295, 314, 314, 295, 295, 314, 314, 295, 295, 314, 314, 295, 295, 314, 314, 295, 295, 314, 314, 295, 295, 314, 314, 295, 295, 314, 314, 295, 295, 314, 314, 295, 295, 314, 314, 295, 295, 314, 314, 295, 295, 314, 314, 295, 295, 314, 314, 295, 295, 314, 314, 295, 295, 314, 314, 295, 295, 314, 314, 295, 295, 314, 314, 295, 295, 314, 314, 295, 295, 314, 314, 295, 295, 314, 314, 295, 295, 314, 314, 295, 295, 314, 314, 295, 295, 314, 314, 295, 295, 314, 314, 295, 295, 314, 314, 295, 295, 314, 314, 295, 295, 314, 314, 295, 295, 314, 314, 295, 295, 314, 314, 295, 295, 314, 314, 295, 295, 314, 314, 295, 295, 314, 314, 295, 295, 314, 314, 295, 295, 314, 314, 295, 295, 314, 314, 314, 295, 314, 314, 295, 295, 314, 314, 295, 295, 314, 314, 295, 295, 314, 314, 295, 295, 314, 314, 295, 295, 314, 314, 295, 295, 314, 314, 295, 295, 314, 314, 295, 295, 314, 314, 295, 295, 314, 314, 295, 295, 314, 314, 295, 295, 314, 314, 314, 295, 314, 314, 314, 295, 314, 314, 295, 295, 314, 314, 295, 295, 314, 314, 295, 295, 314, 314, 295, 295, 314, 314, 295, 295, 314, 314, 295, 295, 314, 314, 295, 295, 314, 314, 295, 295, 314, 314, 295, 295, 314, 314, 295, 295, 314, 314, 295, 295, 314, 314, 295, 295, 314, 314, 295, 295, 314, 314, 295, 295, 314, 314, 295, 295, 314, 314, 295, 295, 314, 314, 295, 295, 314, 314, 295, 295, 314, 314, 295, 295, 314, 314, 295, 295, 314, 314, 295, 295, 314, 314, 295, 295, 314, 314, 295, 295, 314, 314, 295, 295, 314, 314, 295, 295, 314, 314, 295, 295, 314, 314, 295, 295, 314, 314, 295, 295, 314, 314, 314, 295, 314, 314, 314, 295, 314, 314, 314, 295, 314, 314, 314, 295, 314, 314, 314, 295, 314, 314, 314, 295, 314, 314, 314, 295, 314, 314, 88, 314, 314, 314, 88, 314, 314, 314, 88, 314, 314, 314, 88, 314, 314, 314, 88, 314, 314, 314, 88, 314, 314, 314, 88, 314, 314, 314, 295, 295, 314, 314, 295, 295, 314, 314, 295, 295, 314, 314, 295, 295, 314, 314, 295, 295, 314, 314, 295, 295, 314, 314, 295, 295, 314, 314, 295, 295, 314, 88, 88, 88, 88, 314, 295, 295, 314, 314, 295, 295, 314, 314, 295, 295, 314, 314, 295, 295, 314, 314, 295, 295, 314, 314, 295, 295, 314, 314, 295, 295, 314, 314, 295, 295, 314, 314, 295, 295, 314, 314, 295, 295, 314, 314, 295, 295, 314, 314, 295, 295, 314, 314, 88, 314, 314, 314, 88, 314, 314, 314, 88, 314, 314, 314, 314, 295, 314, 314, 314, 295, 314, 314, 295, 295, 314, 314, 295, 295, 314, 314, 295, 295, 314, 314, 295, 295, 314, 314, 314, 295, 314, 314, 314, 295, 314, 314, 314, 295, 314, 314, 88, 314, 314, 314, 88, 314, 314, 314, 295, 295, 314, 314, 295, 295, 314, 314, 295, 295, 314, 314, 295, 295, 314, 314, 295, 295, 314, 314, 295, 295, 314, 314, 295, 295, 314, 314, 88, 314, 314, 314, 88, 314, 314, 314, 88, 314, 314, 314, 88, 314, 314, 314, 88, 314, 314, 314, 88, 314, 314, 314, 88, 314, 314, 314, 295, 295, 314, 314, 295, 295, 314, 314, 295, 295, 314, 314, 295, 295, 314, 314, 295, 295, 314, 314, 295, 295, 314, 314, 295, 295, 314, 314, 295, 295, 314, 314, 295, 295, 314, 314, 295, 295, 314, 314, 295, 295, 314, 314, 295, 295, 314, 314, 295, 295, 314, 314, 295, 295, 314, 314, 295, 295, 314, 314, 295, 295, 314, 314, 295, 295, 314, 314, 295, 295, 314, 314, 295, 295, 314, 314, 295, 295, 314, 314, 295, 295, 314, 314, 88, 314, 314, 314, 88, 314, 314, 314, 88, 314, 314, 314, 88, 314, 314, 314, 88, 314, 314, 314, 88, 314, 314, 314, 88, 314, 314, 314, 88, 314, 314, 314, 88, 314, 314, 314, 88, 314, 314, 314, 88, 314, 314, 314, 88, 314, 314, 314, 88, 314, 314, 314, 88, 314, 314, 314, 88, 314, 314, 314, 88, 314, 314, 314, 88, 314, 314, 314, 88, 314, 314, 314, 88, 314, 314, 314, 88, 314, 314, 314, 88, 314, 314, 314, 295, 295, 314, 314, 295, 295, 314, 314, 295, 295, 314, 314, 295, 295, 314, 314, 295, 295, 314, 314, 295, 295, 314, 314, 295, 295, 314, 314, 295, 295, 314, 314, 295, 295, 314, 314, 295, 295, 314, 314, 295, 295, 314, 314, 295, 295, 314, 314, 295, 295, 314, 314, 295, 295, 314, 314, 295, 295, 314, 314, 295, 295, 314, 314, 295, 295, 314, 314, 295, 295, 314, 314, 295, 295, 314, 314, 295, 295, 314, 314, 295, 295, 314, 314, 88, 314, 314, 314, 88, 314, 314, 314, 88, 314, 314, 314, 314, 295, 314, 314, 314, 295, 314, 314, 314, 295, 314, 314, 314, 295, 314, 314, 88, 314, 314, 314, 88, 314, 314, 314, 88, 314, 314, 314, 88, 314, 314, 314, 88, 314, 314, 314, 88, 314, 314, 314, 88, 314, 314, 314, 314, 295, 314, 314, 314, 295, 314, 314, 88, 314, 314, 314, 88, 314, 314, 314, 88, 314, 314, 314, 88, 314, 314, 314, 88, 314, 314, 314, 295, 295, 314, 314, 295, 295, 314, 314, 295, 295, 314, 314, 295, 295, 314, 314, 295, 295, 314, 314, 295, 295, 314, 314, 295, 295, 314, 314, 295, 295, 314, 314, 295, 295, 314, 314, 295, 295, 314, 314, 295, 295, 314, 314, 295, 295, 314, 314, 295, 295, 314, 314, 295, 295, 314, 314, 295, 295, 314, 314, 295, 295, 314, 314, 295, 295, 314, 314, 295, 295, 314, 314, 295, 295, 314, 314, 295, 295, 314, 314, 295, 295, 314, 314, 88, 314, 314, 314, 88, 314, 314, 314, 314, 314, 314, 314, 314, 295, 314, 314, 314, 295, 314, 314, 314, 295, 314, 314, 314, 295, 314, 314, 88, 314, 314, 314, 88, 314, 314, 314, 88, 314, 314, 314, 88, 314, 314, 314, 88, 314, 314, 314, 88, 314, 314, 314, 88, 314, 314, 314, 88, 314, 314, 314, 88, 314, 314, 314, 88, 314, 314, 314, 88, 314, 314, 314, 88, 314, 314, 314, 88, 314, 314, 314, 88, 314, 314, 314, 295, 295, 314, 314, 295, 295, 314, 314, 295, 295, 314, 314, 314, 295, 314, 314, 314, 295, 314, 314, 314, 295, 314, 314, 314, 295, 314, 314, 295, 295, 314, 314, 295, 295, 314, 314, 295, 295, 314, 314, 295, 295, 314, 314, 295, 295, 314, 314, 295, 295, 314, 314, 295, 295, 314, 314, 295, 295, 314, 314, 295, 295, 314, 314, 295, 295, 314, 314, 295, 295, 314, 314, 295, 295, 314, 314, 295, 295, 314, 314, 295, 295, 314, 314, 88, 314, 314, 314, 88, 314, 314, 314, 314, 295, 314, 314, 314, 295, 314, 314, 295, 295, 314, 314, 295, 295, 314, 314, 295, 295, 314, 314, 88, 314, 314, 314, 88, 314, 314, 314, 88, 314, 314, 314, 88, 314, 314, 314, 88, 314, 314, 314, 88, 314, 314, 314, 88, 314, 314, 314, 88, 314, 314, 314, 88, 314, 314, 314, 88, 314, 314, 314, 88, 314, 314, 314, 88, 314, 314, 314, 88, 314, 314, 314, 88, 314, 314, 314, 88, 314, 314, 314, 88, 314, 314, 314, 88, 314, 314, 314, 88, 314, 314, 314, 88, 314, 314, 314, 88, 314, 314, 314, 88, 314, 314, 314, 295, 295, 314, 314, 295, 295, 314, 314, 295, 295, 314, 314, 295, 295, 314, 314, 295, 295, 314, 88, 88, 88, 88, 88, 88, 88, 88, 314, 295, 295, 314, 314, 295, 295, 314, 314, 295, 295, 314, 314, 295, 295, 314, 314, 295, 295, 314, 314, 295, 295, 314, 314, 295, 295, 314, 314, 88, 314, 314, 314, 88, 314, 314, 314, 88, 314, 314, 314, 88, 314, 314, 314, 88, 314, 314, 314, 88, 314, 314, 314, 88, 314, 314, 314, 88, 314, 314, 314, 88, 314, 314, 314, 88, 314, 314, 314, 88, 314, 314, 314, 88, 314, 314, 314, 88, 314, 314, 314, 88, 314, 314, 314, 295, 295, 314, 314, 295, 295, 314, 314, 295, 295, 314, 314, 295, 295, 314, 314, 314, 295, 314, 314, 314, 295, 314, 314, 314, 295, 314, 314, 295, 295, 314, 314, 295, 295, 314, 314, 295, 295, 314, 314, 295, 295, 314, 314, 295, 295, 314, 314, 295, 295, 314, 314, 295, 295, 314, 314, 314, 295, 314, 314, 314, 295, 314, 314, 295, 295, 314, 314, 295, 295, 314, 314, 295, 295, 314, 314, 295, 295, 314, 314, 295, 295, 314, 314, 88, 314, 314, 314, 88, 314, 314, 314, 88, 314, 314, 314, 88, 314, 314, 314, 88, 314, 314, 314, 88, 314, 314, 314, 88, 314, 314, 314, 88, 314, 314, 314, 88, 314, 314, 314, 88, 314, 314, 314, 88, 314, 314, 314, 88, 314, 314, 314, 88, 314, 314, 314, 88, 314, 314, 314, 88, 314, 314, 314, 88, 314, 314, 314, 88, 314, 314, 314, 88, 314, 314, 314, 88, 314, 314, 314, 88, 314, 314, 314, 88, 314, 314, 314, 314, 295, 314, 314, 314, 295, 314, 314, 88, 314, 314, 314, 88, 314, 314, 314, 88, 314, 314, 314, 88, 314, 314, 314, 88, 314, 314, 314, 295, 295, 314, 314, 295, 295, 314, 88, 88, 88, 88, 88, 88, 88, 88, 314, 295, 295, 314, 314, 88, 314, 314, 314, 88, 314, 314, 314, 88, 314, 314, 314, 314, 295, 314, 314, 295, 295, 314, 314, 295, 295, 314, 314, 295, 295, 314, 314, 295, 295, 314, 314, 295, 295, 314, 314, 88, 314, 314, 314, 88, 314, 314, 314, 88, 314, 314, 314, 88, 314, 314, 314, 88, 314, 314, 314, 88, 314, 314, 314, 88, 314, 314, 314, 295, 295, 314, 314, 295, 295, 314, 314, 295, 295, 314, 314, 295, 295, 314, 314, 295, 295, 314, 314, 295, 295, 314, 314, 88, 314, 314, 314, 88, 314, 314, 314, 88, 314, 314, 314, 88, 314, 314, 314, 88, 314, 314, 314, 88, 314, 314, 314, 88, 314, 314, 314, 314, 295, 314, 314, 88, 314, 314, 314, 88, 314, 314, 314, 88, 314, 314, 314, 88, 314, 314, 314, 88, 314, 314, 314, 88, 314, 314, 314, 88, 314, 314, 314, 88, 314, 314, 314, 88, 314, 314, 314, 88, 314, 314, 314, 88, 314, 314, 314, 88, 314, 314, 314, 88, 314, 314, 314, 88, 314, 314, 314, 88, 314, 314, 314, 88, 314, 314, 314, 88, 314, 314, 314, 88, 314, 314, 314, 88, 314, 314, 314, 88, 314, 314, 314, 88, 314, 314, 314, 295, 295, 314, 314, 295, 295, 314, 314, 295, 295, 314, 314, 295, 295, 314, 314, 295, 295, 314, 314, 295, 295, 314, 314, 295, 295, 314, 314, 295, 295, 314, 314, 295, 295, 314, 314, 295, 295, 314, 314, 295, 295, 314, 314, 295, 295, 314, 314, 295, 295, 314, 314, 295, 295, 314, 314, 295, 295, 314, 314, 295, 295, 314, 314, 295, 295, 314, 314, 295, 295, 314, 314, 295, 295, 314, 314, 295, 295, 314, 314, 295, 295, 314, 314, 88, 314, 314, 314, 88, 314, 314, 314, 314, 295, 314, 314, 314, 295, 314, 314, 314, 295, 314, 314, 314, 295, 314, 314, 295, 295, 314, 314, 88, 314, 314, 314, 88, 314, 314, 314, 88, 314, 314, 314, 88, 314, 314, 314, 88, 314, 314, 314, 88, 314, 314, 314, 88, 314, 314, 314, 88, 314, 314, 314, 88, 314, 314, 314, 88, 314, 314, 314, 88, 314, 314, 314, 88, 314, 314, 314, 88, 314, 314, 314, 88, 314, 314, 314, 88, 314, 314, 314, 88, 314, 314, 314, 88, 314, 314, 314, 88, 314, 314, 314, 88, 314, 314, 314, 88, 314, 314, 314, 88, 314, 314, 314, 295, 295, 314, 314, 314, 295, 314, 314, 314, 295, 314, 314, 314, 295, 314, 314, 314, 295, 314, 314, 88, 314, 314, 314, 88, 314, 314, 314, 295, 295, 314, 314, 295, 295, 314, 314, 295, 295, 314, 314, 295, 295, 314, 314, 295, 295, 314, 314, 295, 295, 314, 314, 295, 295, 314, 314, 295, 295, 314, 314, 295, 295, 314, 314, 295, 295, 314, 314, 295, 295, 314, 314, 295, 295, 314, 314, 295, 295, 314, 314, 295, 295, 314, 314, 88, 314, 314, 314, 88, 314, 314, 314, 88, 314, 314, 314, 88, 314, 314, 314, 88, 314, 314, 314, 88, 314, 314, 314, 88, 314, 314, 314, 88, 314, 314, 314, 88, 314, 314, 314, 88, 314, 314, 314, 88, 314, 314, 314, 88, 314, 314, 314, 88, 314, 314, 314, 88, 314, 314, 314, 88, 314, 314, 314, 88, 314, 314, 314, 88, 314, 314, 314, 88, 314, 314, 314, 88, 314, 314, 314, 88, 314, 314, 314, 88, 314, 314, 314, 314, 295, 314, 314, 314, 295, 314, 314, 314, 295, 314, 314, 88, 314, 314, 314, 88, 314, 314, 314, 88, 314, 314, 314, 88, 314, 314, 314, 295, 295, 314, 314, 295, 295, 314, 314, 295, 295, 314, 88, 88, 88, 88, 88, 88, 88, 88, 314, 295, 295, 314, 314, 295, 295, 314, 314, 295, 295, 314, 314, 295, 295, 314, 314, 295, 295, 314, 314, 295, 295, 314, 314, 295, 295, 314, 314, 295, 295, 314, 314, 295, 295, 314, 314, 88, 314, 314, 314, 88, 314, 314, 314, 88, 314, 314, 314, 88, 314, 314, 314, 88, 314, 314, 314, 88, 314, 314, 314, 88, 314, 314, 314, 88, 314, 314, 314, 88, 314, 314, 314, 88, 314, 314, 314, 88, 314, 314, 314, 88, 314, 314, 314, 88, 314, 314, 314, 88, 314, 314, 314, 88, 314, 314, 314, 88, 314, 314, 314, 88, 314, 314, 314, 88, 314, 314, 314, 88, 314, 314, 314, 88, 314, 314, 314, 88, 314, 314, 314, 295, 295, 314, 314, 295, 295, 314, 314, 295, 295, 314, 314, 295, 295, 314, 314, 314, 295, 314, 314, 314, 295, 314, 314, 314, 295, 314, 314, 295, 295, 314, 314, 295, 295, 314, 314, 295, 295, 314, 314, 295, 295, 314, 314, 295, 295, 314, 314, 295, 295, 314, 314, 295, 295, 314, 314, 295, 295, 314, 314, 295, 295, 314, 314, 295, 295, 314, 314, 295, 295, 314, 314, 295, 295, 314, 314, 295, 295, 314, 314, 295, 295, 314, 314, 295, 295, 314, 314, 295, 295, 314, 314, 295, 295, 314, 314, 295, 295, 314, 314, 295, 295, 314, 314, 295, 295, 314, 314, 295, 295, 314, 314, 88, 314, 314, 314, 88, 314, 314, 314, 88, 314, 314, 314, 88, 314, 314, 314, 88, 314, 314, 314, 88, 314, 314, 314, 88, 314, 314, 314, 88, 314, 314, 314, 88, 314, 314, 314, 88, 314, 314, 314, 88, 314, 314, 314, 88, 314, 314, 314, 88, 314, 314, 314, 88, 314, 314, 314, 88, 314, 314, 314, 88, 314, 314, 314, 88, 314, 314, 314, 88, 314, 314, 314, 88, 314, 314, 314, 88, 314, 314, 314, 88, 314, 314, 314, 295, 295, 314, 314, 295, 295, 314, 314, 295, 295, 314, 314, 295, 295, 314, 314, 295, 295, 314, 314, 295, 295, 314, 314, 295, 295, 314, 314, 295, 295, 314, 314, 295, 295, 314, 314, 295, 295, 314, 314, 295, 295, 314, 314, 295, 295, 314, 314, 295, 295, 314, 314, 295, 295, 314, 314, 295, 295, 314, 314, 295, 295, 314, 314, 295, 295, 314, 314, 295, 295, 314, 314, 295, 295, 314, 88, 88, 88, 88, 314, 295, 295, 314, 314, 88, 314, 314, 314, 295, 295, 314, 314, 295, 295, 314, 314, 295, 295, 314, 314, 295, 295, 314, 314, 295, 295, 314, 314, 295, 295, 314, 314, 295, 295, 314, 314, 88, 314, 314, 314, 88, 314, 314, 314, 88, 314, 314, 314, 88, 314, 314, 314, 88, 314, 314, 314, 88, 314, 314, 314, 295, 295, 314, 314, 295, 295, 314, 314, 295, 295, 314, 314, 295, 295, 314, 314, 295, 295, 314, 314, 295, 295, 314, 314, 295, 295, 314, 314, 88, 314, 314, 314, 88, 314, 314, 314, 88, 314, 314, 314, 88, 314, 314, 314, 88, 314, 314, 314, 88, 314, 314, 314, 88, 314, 314, 314, 88, 314, 314, 314, 88, 314, 314, 314, 88, 314, 314, 314, 88, 314, 314, 314, 88, 314, 314, 314, 88, 314, 314, 314, 88, 314, 314, 314, 88, 314, 314, 314, 88, 314, 314, 314, 88, 314, 314, 314, 88, 314, 314, 314, 88, 314, 314, 314, 88, 314, 314, 314, 88, 314, 314, 314, 295, 295, 314, 314, 295, 295, 314, 314, 295, 295, 314, 314, 295, 295, 314, 314, 295, 295, 314, 314, 295, 295, 314, 314, 295, 295, 314, 88, 88, 88, 88, 88, 88, 88, 88, 314, 295, 295, 314, 314, 295, 295, 314, 314, 295, 295, 314, 314, 295, 295, 314, 314, 295, 295, 314, 314, 295, 295, 314, 314, 295, 295, 314, 314, 295, 295, 314, 314, 295, 295, 314, 314, 295, 295, 314, 314, 295, 295, 314, 314, 295, 295, 314, 314, 88, 314, 314, 314, 88, 314, 314, 314, 88, 314, 314, 314, 88, 314, 314, 314, 88, 314, 314, 314, 88, 314, 314, 314, 88, 314, 314, 314, 88, 314, 314, 314, 88, 314, 314, 314, 88, 314, 314, 314, 88, 314, 314, 314, 88, 314, 314, 314, 88, 314, 314, 314, 88, 314, 314, 314, 314, 295, 314, 314, 88, 314, 314, 314, 88, 314, 314, 314, 88, 314, 314, 314, 88, 314, 314, 314, 88, 314, 314, 314, 88, 314, 314, 314, 295, 295, 314, 314, 295, 295, 314, 314, 295, 295, 314, 314, 295, 295, 314, 314, 295, 295, 314, 314, 295, 295, 314, 314, 295, 295, 314, 314, 295, 295, 314, 314, 295, 295, 314, 314, 295, 295, 314, 314, 295, 295, 314, 314, 295, 295, 314, 314, 295, 295, 314, 314, 295, 295, 314, 314, 295, 295, 314, 314, 295, 295, 314, 314, 295, 295, 314, 314, 295, 295, 314, 314, 295, 295, 314, 314, 295, 295, 314, 314, 295, 295, 314, 314, 295, 295, 314, 314, 295, 295, 314, 314, 295, 295, 314, 314, 295, 295, 314, 314, 295, 295, 314, 314, 295, 295, 314, 314, 295, 295, 314, 314, 314, 295, 314, 314, 314, 295, 314, 314, 314, 295, 314, 314, 314, 295, 314, 314, 314, 295, 314, 314, 314, 295, 314, 314, 314, 295, 314, 314, 295, 295, 314, 314, 295, 295, 314, 314, 295, 295, 314, 314, 295, 295, 314, 314, 295, 295, 314, 314, 295, 295, 314, 314, 295, 295, 314, 314, 295, 295, 314, 314, 295, 295, 314, 88, 88, 88, 88, 88, 88, 88, 88, 314, 295, 295, 314, 314, 295, 295, 314, 314, 295, 295, 314, 314, 295, 295, 314, 314, 295, 295, 314, 314, 295, 295, 314, 314, 295, 295, 314, 314, 295, 295, 314, 314, 295, 295, 314, 314, 295, 295, 314, 314, 314, 295, 314, 314, 295, 295, 314, 314, 295, 295, 314, 314, 295, 295, 314, 314, 295, 295, 314, 314, 295, 295, 314, 314, 295, 295, 314, 314, 295, 295, 314, 314, 295, 295, 314, 314, 295, 295, 314, 314, 295, 295, 314, 314, 295, 295, 314, 314, 295, 295, 314, 314, 295, 295, 314, 314, 295, 295, 314, 314, 295, 295, 314, 314, 295, 295, 314, 314, 295, 295, 314, 314, 295, 295, 314, 314, 295, 295, 314, 314, 295, 295, 314, 314, 295, 295, 314, 314, 295, 295, 314, 314, 295, 295, 314, 314, 295, 295, 314, 314, 295, 295, 314, 314, 295, 295, 314, 314, 295, 295, 314, 314, 295, 295, 314, 314, 295, 295, 314, 314, 295, 295, 314, 314, 295, 295, 314, 314, 295, 295, 314, 314, 295, 295, 314, 314, 295, 295, 314, 314, 295, 295, 314, 314, 295, 295, 314, 314, 295, 295, 314, 314, 295, 295, 314, 314, 295, 295, 314, 314, 295, 295, 314, 314, 295, 295, 314, 314, 295, 295, 314, 314, 295, 295, 314, 314, 295, 295, 314, 314, 295, 295, 314, 314, 295, 295, 314, 314, 295, 295, 314, 314, 295, 295, 314, 314, 295, 295, 314, 314, 295, 295, 314, 314, 295, 295, 314, 314, 295, 295, 314, 314, 295, 295, 314, 314, 295, 295, 314, 314, 295, 295, 314, 314, 295, 295, 314, 314, 295, 295, 314, 314, 295, 295, 314, 314, 295, 295, 314, 314, 295, 295, 314, 314, 295, 295, 314, 314, 295, 295, 314, 314, 295, 295, 314, 314, 295, 295, 314, 314, 295, 295, 314, 314, 295, 295, 314, 314, 295, 295, 314, 314, 295, 295, 314, 314, 295, 295, 314, 314, 295, 295, 314, 314, 295, 295, 314, 314, 295, 295, 314, 314, 295, 295, 314, 314, 295, 295, 314, 314, 295, 295, 314, 314, 295, 295, 314, 314, 295, 295, 314, 314, 295, 295, 314, 314, 295, 295, 314, 314, 295, 295, 314, 314, 295, 295, 314, 314, 295, 295, 314, 314, 295, 295, 314, 314, 295, 295, 314, 314, 295, 295, 314, 314, 295, 295, 314, 314, 295, 295, 314, 314, 295, 295, 314, 314, 295, 295, 314, 314, 295, 295, 314, 314, 295, 295, 314, 314, 295, 295, 314, 314, 295, 295, 314, 314, 295, 295, 314, 314, 295, 295, 314, 314, 295, 295, 314, 314, 295, 295, 314, 314, 295, 295, 314, 314, 295, 295, 314, 314, 295, 295, 314, 314, 295, 295, 314, 314, 295, 295, 314, 314, 295, 295, 314, 314, 295, 295, 314, 314, 295, 295, 314, 314, 295, 295, 314, 314, 295, 295, 314, 314, 295, 295, 314, 314, 295, 295, 314, 314, 295, 295, 314, 314, 295, 295, 314, 314, 295, 295, 314, 314, 295, 295, 314, 314, 295, 295, 314, 314, 295, 295, 314, 314, 295, 295, 314, 314, 295, 295, 314, 314, 295, 295, 314, 314, 295, 295, 314, 314, 295, 295, 314, 314, 295, 295, 314, 314, 295, 295, 314, 314, 295, 295, 314, 314, 295, 295, 314, 314, 295, 295, 314, 314, 295, 295, 314, 314, 295, 295, 314, 314, 295, 295, 314, 314, 295, 295, 314, 314, 295, 295, 314, 314, 295, 295, 314, 314, 295, 295, 314, 314, 295, 295, 314, 314, 295, 295, 314, 314, 295, 295, 314, 314, 295, 295, 314, 314, 295, 295, 314, 314, 295, 295, 314, 314, 295, 295, 314, 314, 295, 295, 314, 314, 295, 295, 314, 314, 295, 295, 314, 314, 295, 295, 314, 314, 295, 295, 314, 314, 295, 295, 314, 314, 295, 295, 314, 314, 295, 295, 314, 314, 295, 295, 314, 314, 295, 295, 314, 314, 295, 295, 314, 314, 295, 295, 314, 314, 295, 295, 314, 314, 295, 295, 314, 314, 295, 295, 314, 314, 295, 295, 314, 314, 295, 295, 314, 314, 295, 295, 314, 314, 295, 295, 314, 314, 295, 295, 314, 314, 295, 295, 314, 314, 295, 295, 314, 314, 295, 295, 314, 314, 295, 295, 314, 314, 295, 295, 314, 314, 295, 295, 314, 314, 295, 295, 314, 314, 295, 295, 314, 314, 295, 295, 314, 314, 295, 295, 314, 314, 295, 295, 314, 314, 295, 295, 314, 314, 295, 295, 314, 314, 295, 295, 314, 314, 295, 295, 314, 314, 295, 295, 314, 314, 295, 295, 314, 314, 295, 295, 314, 314, 295, 295, 314, 314, 295, 295, 314, 314, 295, 295, 314, 314, 295, 295, 314, 314, 295, 295, 314, 314, 295, 295, 314, 314, 295, 295, 314, 314, 295, 295, 314, 314, 295, 295, 314, 314, 295, 295, 314, 314, 295, 295, 314, 314, 295, 295, 314, 314, 295, 295, 314, 314, 295, 295, 314, 314, 295, 295, 314, 314, 295, 295, 314, 314, 295, 295, 314, 314, 295, 295, 314, 314, 295, 295, 314, 314, 295, 295, 314, 314, 295, 295, 314, 314, 295, 295, 314, 314, 295, 295, 314, 314, 295, 295, 314, 88, 88, 88, 88, 314, 295, 295, 314, 314, 295, 295, 314, 314, 295, 295, 314, 314, 295, 295, 314, 314, 295, 295, 314, 314, 295, 295, 314, 314, 295, 295, 314, 314, 295, 295, 314, 314, 295, 295, 314, 314, 295, 295, 314, 314, 295, 295, 314, 314, 295, 295, 314, 314, 295, 295, 314, 314, 295, 295, 314, 314, 295, 295, 314, 314, 295, 295, 314, 314, 295, 295, 314, 314, 295, 295, 314, 314, 295, 295, 314, 314, 295, 295, 314, 314, 295, 295, 314, 314, 295, 295, 314, 314, 295, 295, 314, 314, 295, 295, 314, 314, 295, 295, 314, 314, 295, 295, 314, 314, 295, 295, 314, 314, 295, 295, 314, 314, 295, 295, 314, 314, 295, 295, 314, 314, 295, 295, 314, 314, 295, 295, 314, 314, 295, 295, 314, 314, 295, 295, 314, 314, 295, 295, 314, 314, 295, 295, 314, 314, 295, 295, 314, 314, 295, 295, 314, 314, 295, 295, 314, 314, 295, 295, 314, 314, 295, 295, 314, 314, 295, 295, 314, 314, 295, 295, 314, 314, 295, 295, 314, 314, 295, 295, 314, 314, 295, 295, 314, 314, 295, 295, 314, 314, 295, 295, 314, 314, 295, 295, 314, 314, 295, 295, 314, 314, 295, 295, 314, 314, 295, 295, 314, 314, 295, 295, 314, 314, 295, 295, 314, 314, 295, 295, 314, 314, 295, 295, 314, 314, 295, 295, 314, 314, 295, 295, 314, 314, 295, 295, 314, 314, 295, 295, 314, 314, 295, 295, 314, 314, 295, 295, 314, 314, 295, 295, 314, 314, 295, 295, 314, 314, 295, 295, 314, 314, 295, 295, 314, 314, 295, 295, 314, 314, 295, 295, 314, 314, 295, 295, 314, 314, 295, 295, 314, 314, 295, 295, 314, 314, 295, 295, 314, 314, 295, 295, 314, 314, 295, 295, 314, 314, 295, 295, 314, 314, 295, 295, 314, 314, 295, 295, 314, 314, 295, 295, 314, 88, 88, 88, 88, 88, 88, 88, 88, 314, 295, 295, 314, 314, 295, 295, 314, 314, 295, 295, 314, 314, 295, 295, 314, 314, 295, 295, 314, 314, 295, 295, 314, 314, 295, 295, 314, 314, 295, 295, 314, 314, 295, 295, 314, 314, 295, 295, 314, 314, 295, 295, 314, 314, 295, 295, 314, 314, 295, 295, 314, 314, 295, 295, 314, 314, 295, 295, 314, 314, 295, 295, 314, 314, 295, 295, 314, 314, 295, 295, 314, 314, 295, 295, 314, 314, 295, 295, 314, 314, 295, 295, 314, 314, 295, 295, 314, 314, 295, 295, 314, 314, 295, 295, 314, 314, 295, 295, 314, 314, 295, 295, 314, 314, 295, 295, 314, 314, 295, 295, 314, 314, 295, 295, 314, 314, 295, 295, 314, 314, 295, 295, 314, 314, 295, 295, 314, 314, 295, 295, 314, 314, 295, 295, 314, 314, 295, 295, 314, 314, 295, 295, 314, 314, 295, 295, 314, 314, 295, 295, 314, 314, 295, 295, 314, 314, 295, 295, 314, 314, 295, 295, 314, 314, 295, 295, 314, 314, 295, 295, 314, 314, 295, 295, 314, 314, 295, 295, 314, 314, 295, 295, 314, 314, 295, 295, 314, 314, 295, 295, 314, 314, 295, 295, 314, 314, 295, 295, 314, 314, 295, 295, 314, 314, 295, 295, 314, 314, 295, 295, 314, 314, 295, 295, 314, 314, 295, 295, 314, 314, 295, 295, 314, 314, 295, 295, 314, 314, 295, 295, 314, 314, 295, 295, 314, 314, 295, 295, 314, 314, 295, 295, 314, 314, 295, 295, 314, 314, 295, 295, 314, 314, 295, 295, 314, 314, 295, 295, 314, 314, 295, 295, 314, 314, 295, 295, 314, 314, 295, 295, 314, 314, 295, 295, 314, 314, 295, 295, 314, 314, 295, 295, 314, 314, 295, 295, 314, 314, 295, 295, 314, 314, 295, 295, 314, 314, 295, 295, 314, 314, 295, 295, 314, 314, 295, 295, 314, 314, 295, 295, 314, 314, 295, 295, 314, 314, 295, 295, 314, 314, 295, 295, 314, 314, 295, 295, 314, 314, 295, 295, 314, 314, 295, 295, 314, 314, 295, 295, 314, 314, 295, 295, 314, 314, 295, 295, 314, 314, 295, 295, 314, 314, 295, 295, 314, 314, 295, 295, 314, 314, 295, 295, 314, 314, 295, 295, 314, 314, 295, 295, 314, 314, 295, 295, 314, 314, 295, 295, 314, 317, 298, 298, 317, 317, 298, 298, 317, 317, 298, 298, 317, 317, 298, 298, 317, 317, 298, 298, 317, 317, 298, 298, 317, 317, 298, 298, 317, 88, 88, 88, 88, 88, 88, 88, 88, 88, 88, 88, 88, 88, 88, 88, 88, 88, 88, 88, 88, 88, 88, 88, 88, 88, 88, 88, 88, 88, 88, 88, 88, 88, 88, 88, 88, 88, 88, 88, 88, 88, 88, 88, 88, 
gpgpu_n_tot_thrd_icount = 662830560
gpgpu_n_tot_w_icount = 20713455
gpgpu_n_icache_hits = 10483973
gpgpu_n_icache_misses = 633059
gpgpu_n_l1dcache_read_hits = 4606760
gpgpu_n_l1dcache_read_misses = 22393240
gpgpu_n_l1dcache_write_accesses = 26154000
gpgpu_n_l1dcache_wirte_misses = 26154000
gpgpu_n_tcache_hits = 0
gpgpu_n_tcache_misses = 0
gpgpu_n_ccache_hits = 143608
gpgpu_n_ccache_misses = 392
gpgpu_n_stall_shd_mem = 691127630
gpgpu_n_mem_read_local = 0
gpgpu_n_mem_write_local = 0
gpgpu_n_mem_read_global = 20728004
gpgpu_n_mem_write_global = 26154000
gpgpu_n_mem_texture = 0
gpgpu_n_mem_const = 14
gpgpu_n_load_insn  = 86400000
gpgpu_n_store_insn = 82080000
gpgpu_n_shmem_insn = 0
gpgpu_n_tex_insn = 0
gpgpu_n_const_mem_insn = 0
gpgpu_n_param_mem_insn = 8640000
gpgpu_n_shmem_bkconflict = 0
gpgpu_n_cache_bkconflict = 0
gpgpu_n_intrawarp_mshr_merge = 0
gpgpu_n_cmem_portconflict = 0
gpgpu_stall_shd_mem[c_mem][bk_conf] = 0
gpgpu_stall_shd_mem[c_mem][mshr_rc] = 0
gpgpu_stall_shd_mem[c_mem][icnt_rc] = 0
gpgpu_stall_shd_mem[t_mem][mshr_rc] = 0
gpgpu_stall_shd_mem[t_mem][icnt_rc] = 0
gpgpu_stall_shd_mem[s_mem][bk_conf] = 0
gpgpu_stall_shd_mem[gl_mem][bk_conf] = 0
gpgpu_stall_shd_mem[gl_mem][coal_stall] = 691127630
gpgpu_stall_shd_mem[g_mem_ld][mshr_rc] = 0
gpgpu_stall_shd_mem[g_mem_ld][icnt_rc] = 0
gpgpu_stall_shd_mem[g_mem_ld][wb_icnt_rc] = 0
gpgpu_stall_shd_mem[g_mem_ld][wb_rsrv_fail] = 0
gpgpu_stall_shd_mem[g_mem_st][mshr_rc] = 0
gpgpu_stall_shd_mem[g_mem_st][icnt_rc] = 0
gpgpu_stall_shd_mem[g_mem_st][wb_icnt_rc] = 0
gpgpu_stall_shd_mem[g_mem_st][wb_rsrv_fail] = 0
gpgpu_stall_shd_mem[l_mem_ld][mshr_rc] = 0
gpgpu_stall_shd_mem[l_mem_ld][icnt_rc] = 0
gpgpu_stall_shd_mem[l_mem_ld][wb_icnt_rc] = 0
gpgpu_stall_shd_mem[l_mem_ld][wb_rsrv_fail] = 0
gpgpu_stall_shd_mem[l_mem_st][mshr_rc] = 0
gpgpu_stall_shd_mem[l_mem_st][icnt_rc] = 0
gpgpu_stall_shd_mem[l_mem_ld][wb_icnt_rc] = 0
gpgpu_stall_shd_mem[l_mem_ld][wb_rsrv_fail] = 0
gpu_reg_bank_conflict_stalls = 0
Warp Occupancy Distribution:
Stall:1039426829	W0_Idle:337884504	W0_Scoreboard:4811880	W1:617798	W2:5244	W3:33116	W4:6080	W5:28680	W6:6080	W7:28730	W8:7429	W9:27093	W10:7904	W11:30734	W12:134937	W13:140409	W14:130712	W15:146040	W16:123725	W17:122235	W18:124088	W19:121986	W20:107613	W21:101321	W22:94712	W23:4039576	W24:1340550	W25:90830	W26:72320	W27:74220	W28:72320	W29:62924	W30:63072	W31:3089383	W32:9661594
maxmrqlatency = 1819 
maxdqlatency = 0 
maxmflatency = 2955 
averagemflatency = 497 
max_icnt2mem_latency = 2089 
max_icnt2sh_latency = 50139229 
mrq_lat_table:7976958 	552702 	861538 	1043676 	3471863 	6301087 	8576298 	6072541 	2432754 	318955 	7708 	0 	0 	0 	0 	0 	0 	0 	0 	0 	0 	0 	0 	0 	0 	0 	0 	0 	0 	0 	0 	0 	
dq_lat_table:0 	0 	0 	0 	0 	0 	0 	0 	0 	0 	0 	0 	0 	0 	0 	0 	0 	0 	0 	0 	0 	0 	0 	0 	0 	0 	0 	0 	0 	0 	0 	0 	
mf_lat_table:0 	0 	0 	0 	0 	0 	66912 	8613251 	17769930 	19075184 	1355597 	1144 	0 	0 	0 	0 	0 	0 	0 	0 	0 	0 	0 	0 	0 	0 	0 	0 	0 	0 	0 	0 	
icnt2mem_lat_table:8278 	1109886 	669522 	455752 	851756 	11943784 	7246316 	6868000 	14885178 	2956977 	4489 	1 	0 	0 	0 	0 	0 	0 	0 	0 	0 	0 	0 	0 	
icnt2sh_lat_table:0 	6249769 	7941588 	6325297 	211332 	32 	0 	0 	0 	0 	0 	0 	0 	0 	0 	0 	18381 	53935 	83526 	241251 	505185 	1054240 	2197639 	4459808 	
mf_lat_pw_table:8761607 	8778428 	0 	0 	0 	0 	0 	246 	46593 	53195 	243 	0 	0 	0 	0 	0 	0 	0 	0 	0 	0 	0 	0 	0 	0 	0 	0 	0 	0 	0 	0 	0 	
maximum concurrent accesses to same row:
dram[0]:        54        60        64        56        56        60        76        52        56        68        82        64        60        59        60        60 
dram[1]:        52        60        64        56        64        64        56        64        48        68        73        64        56        56        56        60 
dram[2]:        48        52        67        56        52        52        54        62        52        71        80        53        51        47        66        49 
dram[3]:        52        57        57        60        54        64        78        58        57        72        78        55        55        52        66        48 
dram[4]:        60        60        80        60        64        64        77        64        76        68        84        64        64        56        64        60 
maximum service time to same row:
dram[0]:     10396     15343     23271     15170     17928     13194     15671     11568     13105     20964     21620     13764     13361     14499     13415     15964 
dram[1]:     10346     15190     16204     15247     13706     14239     14201     13521     10193     20974     13027     12467     13802     14323     13909     14384 
dram[2]:     10522     13567     12755     14318     10591     13620     12933     13870     10420     17159     18594     11668     13907     13434     12157     14137 
dram[3]:      8923     11755     14723     14287      9991     14128     14926     15204     10316     24070     21847     11731     10282     11233     11040     12831 
dram[4]:     10535     15103     23164     14939     12710     14294     15552     13508     12487     20946     21670     14115     11349     14596     13668     14391 
average row accesses per activate:
dram[0]:  5.918126  6.558947  6.580640  6.693488  6.612704  6.669975  6.627201  6.683055  6.499690  6.563605  6.557491  6.644466  6.593133  6.597240  6.540012  6.671242 
dram[1]:  5.802567  6.204026  6.236561  6.324837  6.270418  6.283905  6.258642  6.322185  6.161987  6.231443  6.208504  6.290852  6.229726  6.231749  6.181573  6.314712 
dram[2]:  4.896481  5.172520  5.187287  5.230772  5.218915  5.216516  5.239501  5.251522  5.129980  5.165172  5.179346  5.211358  5.217780  5.197767  5.195711  5.249686 
dram[3]:  4.898282  5.366800  5.410431  5.443602  5.437731  5.451274  5.459601  5.501287  5.330682  5.382904  5.390745  5.460390  5.440197  5.424323  5.415047  5.466478 
dram[4]:  5.830294  6.625120  6.590645  6.736232  6.612335  6.709054  6.644923  6.744082  6.487662  6.632650  6.563106  6.722128  6.595929  6.656702  6.566831  6.729118 
average row locality = 37616080/6370574 = 5.904661
number of total memory accesses made:
dram[0]:         0         0         0         0         0         0         0         0         0         0         0         0         0         0         0         0 
dram[1]:         0         0         0         0         0         0         0         0         0         0         0         0         0         0         0         0 
dram[2]:         0         0         0         0         0         0         0         0         0         0         0         0         0         0         0         0 
dram[3]:         0         0         0         0         0         0         0         0         0         0         0         0         0         0         0         0 
dram[4]:         0         0         0         0         0         0         0         0         0         0         0         0         0         0         0         0 
total accesses: 0
min_bank_accesses = 0!
min_chip_accesses = 0!
number of total read accesses:
dram[0]:    225616    216234    215573    214499    217706    215759    215583    214482    217454    215088    216985    216114    219227    217743    216396    215823 
[...]
dram[3]:         0         0         0         0         0         0         0         0         0         0         0         0         0         0         0         0 
dram[4]:         0         0         0         0         0         0         0         0         0         0         0         0         0         0         0         0 
total accesses: 0
min_bank_accesses = 0!
min_chip_accesses = 0!
number of total read accesses:
dram[0]:    451215    431089    431709    428726    434322    430004    432414    428566    435444    430351    433625    431209    436666    430971    432580    430716 
dram[1]:    398262    385644    385245    383497    388023    384901    386120    383224    388797    385039    386936    385752    389805    385363    385948    385108 
dram[2]:    471280    455114    455754    453339    458397    454249    456167    453065    459134    454424    456920    455614    459968    455084    456423    455092 
dram[3]:    521750    496967    498634    494682    501051    495730    498657    494677    502047    496226    499860    497156    503135    496795    499260    496947 
dram[4]:    482375    456793    458431    454474    461405    455796    458878    454464    462460    456368    460062    457329    463715    456814    459337    456627 
total reads: 35776197
bank skew: 521750/383224 = 1.36
chip skew: 7993574/6187664 = 1.29
number of total write accesses:
dram[0]:    487369    482828    481007    479843    484579    484094    483328    480931    486418    483581    482449    481712    485798    483395    481965    482444 
dram[1]:    440629    436920    434644    434022    438231    438213    437011    435089    439906    437500    435974    435646    439319    437253    435548    436438 
dram[2]:    500509    496459    494763    494115    498151    497644    496914    495022    499715    497015    496046    495604    499067    496785    495776    496336 
dram[3]:    542102    537303    535785    534191    539361    538514    538097    535678    541140    537859    537286    535972    540499    537633    537042    537060 
dram[4]:    512274    506974    505198    503863    509425    508183    507877    505237    511500    507713    507000    505739    510754    507322    506548    506717 
total reads: 39401851
bank skew: 542102/434022 = 1.25
chip skew: 8605522/6992343 = 1.23
average mf latency per bank:
dram[0]:        545       560       562       564       558       560       560       563       553       559       561       563       558       561       559       560
dram[1]:        533       544       547       548       543       545       546       547       538       543       545       547       542       545       544       545
dram[2]:        597       610       611       614       608       610       611       613       603       610       611       613       608       611       609       611
dram[3]:        729       749       751       754       746       750       750       753       740       747       749       753       745       750       747       750
dram[4]:        598       617       618       620       613       616       616       619       608       615       616       620       613       617       615       617
maximum mf latency per bank:
dram[0]:       2362      2115      2164      2198      2075      2168      2101      1905      2254      2156      2060      2019      2255      1986      2086      2181
dram[1]:       1915      2184      2214      2081      1919      2081      2063      2254      2231      2139      2026      2067      2016      2281      2219      2348
dram[2]:       2487      2765      2955      2557      2508      2494      2514      2356      2569      2381      2651      2602      2526      2679      2407      2856
dram[3]:       2531      2939      2627      2617      2687      2586      2563      2707      2452      2703      2486      2371      2584      2728      2693      2623
dram[4]:       2269      2188      2694      2410      2612      2461      2430      2302      2441      2433      2514      2348      2492      2377      2371      2541

Number of Memory Banks Accessed per Memory Operation per Warp (from 0):
0	0	0	0	0	0	0	0	0	0	0	0	0	0	0	0	0	0	0	0	0	0	0	0	0	0	0	0	0	0	0	0	0	0	0	0	0	0	0	0	0	0	0	0	0	0	0	0	0	0	0	0	0	0	0	0	0	0	0	0	0	0	0	0	0	0	0	0	0	0	0	0	0	0	0	0	0	0	0	0	
Average # of Memory Banks Accessed per Memory Operation per Warp=-nan

position of mrq chosen
0	0	0	0	0	0	0	0	0	0	0	0	0	0	0	0	

average position of mrq chosen = -nan
gpgpu_l2_write_miss = 0
gpgpu_l2_write_access = 0
gpgpu_l2_read_miss = 0
gpgpu_l2_read_access = 0
Cache L2_bank_000:
MSHR contents

DRAM[0]: 16 bks, busW=4 BL=8 CL=12, tRRD=2 tCCD=6, tRCD=12 tRAS=28 tRP=12 tRC=40
n_cmd=100381817 n_nop=68998683 n_act=2253291 n_pre=2253275 n_req=14661348 n_rd=13859214 n_write=13017354 bw_util=0.5355
n_activity=96623682 dram_eff=0.5563
bk0: 902430a 77091564i bk1: 862178a 76673962i bk2: 863418a 76748931i bk3: 857452a 76082470i bk4: 868644a 76402124i bk5: 860008a 75725533i bk6: 864828a 75709109i bk7: 857132a 74803695i bk8: 870888a 74804356i bk9: 860702a 73700062i bk10: 867250a 73416973i bk11: 862418a 72210118i bk12: 873332a 71824408i bk13: 861942a 69512279i bk14: 865160a 66121870i bk15: 861432a 58128216i 
dram_util_bins: 0 0 0 0 0 0 0 0 0 0
dram_eff_bins: 0 0 0 0 0 0 0 0 0 0
mrqq: max=16 avg=12.225
Cache L2_bank_001:
MSHR contents

DRAM[1]: 16 bks, busW=4 BL=8 CL=12, tRRD=2 tCCD=6, tRCD=12 tRAS=28 tRP=12 tRC=40
n_cmd=100381817 n_nop=71524728 n_act=2132199 n_pre=2132183 n_req=13180007 n_rd=12375328 n_write=12217379 bw_util=0.49
n_activity=91803331 dram_eff=0.5358
bk0: 796524a 79974579i bk1: 771288a 79569985i bk2: 770490a 79709376i bk3: 766994a 79089071i bk4: 776046a 79430821i bk5: 769802a 78790961i bk6: 772240a 78843730i bk7: 766448a 77979333i bk8: 777594a 77958666i bk9: 770078a 76928307i bk10: 773872a 76723253i bk11: 771504a 75486782i bk12: 779610a 75002326i bk13: 770726a 72692150i bk14: 771896a 69576792i bk15: 770216a 61520924i 
dram_util_bins: 0 0 0 0 0 0 0 0 0 0
dram_eff_bins: 0 0 0 0 0 0 0 0 0 0
mrqq: max=16 avg=10.6578
Cache L2_bank_002:
MSHR contents
MSHR: tag=0x8b0c3d80, atomic=0 1 entries : 0x2b405676fd00 :  mf: uid=1451567651, sid06:w19, part=2, addr=0x8b0c3de0, load , size=32, unknown  status = IN_PARTITION_DRAM (100381816), 

DRAM[2]: 16 bks, busW=4 BL=8 CL=12, tRRD=2 tCCD=6, tRCD=12 tRAS=28 tRP=12 tRC=40
n_cmd=100381817 n_nop=66940290 n_act=2961234 n_pre=2961218 n_req=15259945 n_rd=14620046 n_write=12899029 bw_util=0.5483
n_activity=97204615 dram_eff=0.5662
bk0: 942560a 74599977i bk1: 910228a 74248193i bk2: 911508a 74413018i bk3: 906676a 73659663i bk4: 916794a 74124269i bk5: 908498a 73364562i bk6: 912334a 73480960i bk7: 906130a 72388988i bk8: 918268a 72547532i bk9: 908848a 71349674i bk10: 913840a 71114064i bk11: 911228a 69667867i bk12: 919936a 69289601i bk13: 910168a 66563624i bk14: 912846a 62393112i bk15: 910184a 51799129i 
dram_util_bins: 0 0 0 0 0 0 0 0 0 0
dram_eff_bins: 0 0 0 0 0 0 0 0 0 0
mrqq: max=16 avg=13.0939
Cache L2_bank_003:
MSHR contents

DRAM[3]: 16 bks, busW=4 BL=8 CL=12, tRRD=2 tCCD=6, tRCD=12 tRAS=28 tRP=12 tRC=40
n_cmd=100381817 n_nop=64132264 n_act=3102463 n_pre=3102447 n_req=16599096 n_rd=15987148 n_write=14057495 bw_util=0.5986
n_activity=100113182 dram_eff=0.6002
bk0: 1043500a 70618270i bk1: 993934a 70560506i bk2: 997268a 70643474i bk3: 989364a 69826247i bk4: 1002102a 70299830i bk5: 991460a 69512325i bk6: 997314a 69562025i bk7: 989354a 68473855i bk8: 1004094a 68607007i bk9: 992452a 67327217i bk10: 999720a 67044871i bk11: 994312a 65643678i bk12: 1006270a 65254094i bk13: 993590a 62328464i bk14: 998520a 57784864i bk15: 993894a 47207683i 
dram_util_bins: 0 0 0 0 0 0 0 0 0 0
dram_eff_bins: 0 0 0 0 0 0 0 0 0 0
mrqq: max=16 avg=15.212
Cache L2_bank_004:
MSHR contents

DRAM[4]: 16 bks, busW=4 BL=8 CL=12, tRRD=2 tCCD=6, tRCD=12 tRAS=28 tRP=12 tRC=40
n_cmd=100381817 n_nop=66817972 n_act=2368821 n_pre=2368805 n_req=15477652 n_rd=14710656 n_write=14115563 bw_util=0.5743
n_activity=98950213 dram_eff=0.5826
bk0: 964750a 74212000i bk1: 913586a 74181474i bk2: 916862a 74205713i bk3: 908948a 73500429i bk4: 922810a 73771825i bk5: 911592a 73076109i bk6: 917756a 72989561i bk7: 908928a 72072958i bk8: 924920a 72008402i bk9: 912736a 70888310i bk10: 920124a 70566080i bk11: 914658a 69406250i bk12: 927430a 69016056i bk13: 913628a 66569985i bk14: 918674a 62789731i bk15: 913254a 54781458i 
dram_util_bins: 0 0 0 0 0 0 0 0 0 0
dram_eff_bins: 0 0 0 0 0 0 0 0 0 0
mrqq: max=16 avg=13.7491
Cache L2_bank_000:	Size = 131072 B (64 Set x 16-way x 128 byte line)
		Access = 18556239, Miss = 6929607 (0.373), PendingHit = 28652 (0.00154)
Cache L2_bank_001:	Size = 131072 B (64 Set x 16-way x 128 byte line)
		Access = 16801383, Miss = 6187664 (0.368), PendingHit = 23883 (0.00142)
Cache L2_bank_002:	Size = 131072 B (64 Set x 16-way x 128 byte line)
		Access = 18189004, Miss = 7310024 (0.402), PendingHit = 30644 (0.00168)
Cache L2_bank_003:	Size = 131072 B (64 Set x 16-way x 128 byte line)
		Access = 20396867, Miss = 7993574 (0.392), PendingHit = 39197 (0.00192)
Cache L2_bank_004:	Size = 131072 B (64 Set x 16-way x 128 byte line)
		Access = 19920776, Miss = 7355328 (0.369), PendingHit = 33543 (0.00168)
L2 Cache Total Miss Rate = 0.381

icnt_total_pkts_mem_to_simt=260089317
icnt_total_pkts_simt_to_mem=235488269

LD_mem_lat_dist  0 0 0 0 0 0 0 0 0 0 0 0 0 0 0 0 0 0 0 0 0 0 0 0 0 0 0
ST_mem_lat_dist  0 0 0 0 0 0 0 0 0 0 0 0 0 0 0 0 0 0 0 0 0 0 0 0 0 0 0
Traffic 0 Stat
%=================================
% Average latency = 234.155
% Accepted packets = 0 at node 0 (avg = 0.0509166)
lat(3) = 234.155;
thru(3,:) = [ 0 0 0 0 0 0 0 0 0 0 0 0 0 0 0.234206 0.217663 0.217404 0.249506 0.252302 0 0 0 0 ];
% latency change    = 0.965995
% throughput change = 0.110269
Traffic 1 Stat
%=================================
% Average latency = 8.02046
% Accepted packets = 0 at node 14 (avg = 0.0561215)
lat(4) = 8.02046;
thru(4,:) = [ 0.0928898 0.0923728 0.0933304 0.0923884 0.0927285 0.0923745 0.0923701 0.0921481 0.0913027 0.0922102 0.0915942 0.0917606 0.0928195 0.0905041 0 0 0 0 0 0 0 0 0 ];
% latency change    = 28.1947
% throughput change = 0.0927432
----------------------------Interconnect-DETAILS---------------------------------=======Traffic[0]class0 ======
Traffic[0]class0Overall average latency = 235.16 (2 samples)
Traffic[0]class0Overall average accepted rate = 0.0509985 (2 samples)
Traffic[0]class0Overall min accepted rate = 0 (2 samples)
traffic_manager/latency_stat_0_freq = [ 0 1277317 222502 142330 126732 125781 95265 74577 67027 61342 54069 45982 41336 37870 34731 33167 685863 893011 607589 589326 514421 516641 467775 549697 562269 551152 610840 611782 601632 589847 580662 570489 546032 555652 534549 519913 507199 493679 475457 455340 440822 423017 403880 389055 372439 357175 340020 328290 310104 296356 283417 269622 256227 245386 232263 222453 209217 201769 190433 182080 171249 164930 154966 149102 140799 134784 128030 123622 116794 112779 107674 104252 99029 96645 92204 91039 87057 85831 82715 81454 78481 79148 75907 76211 73566 75527 73752 74204 72490 74435 72104 74214 72658 75045 73885 76043 74088 77127 75931 78092 77235 79337 78125 81095 80275 82584 81757 83781 82592 84411 83314 85193 84490 86853 85832 87704 87005 88893 87190 89029 87624 89100 87451 88077 87571 88581 87269 87781 86026 87098 85946 86476 84696 85071 83600 83294 81549 81572 79957 79764 77842 78088 75918 75663 73863 73395 71962 70802 69156 68374 67055 66605 63997 63324 61872 61204 58811 58834 56710 55886 54335 53912 51461 51442 48973 48573 46662 46687 44660 44049 42506 42094 40375 40296 38486 38239 36417 36455 35082 34911 32938 33075 31630 31733 29935 30099 28561 28732 27292 27727 26308 26640 25490 25954 24322 24644 23313 23832 22467 22781 21924 22416 21363 21579 20513 21377 19966 20735 19693 20134 19213 19540 18617 18941 18184 18821 17830 18662 17624 18205 17079 18096 17263 17819 16839 17686 16792 17411 16759 17380 16326 17252 16170 16785 16370 16891 16167 17022 15971 16776 15955 16985 15915 17089 16114 17079 15910 17035 15918 16820 15865 16974 15917 17040 15928 17003 16049 17087 16192 17220 15964 17220 16125 17366 16179 17037 16365 17154 16429 17380 16686 17578 16669 17716 16613 17832 16666 17886 16763 17986 17033 18018 16655 17637 16971 18218 17204 18160 17147 18202 17197 18506 17283 18485 17265 18670 17546 18417 17566 18859 17602 18664 17868 19015 17466 18875 17757 18914 17945 19031 18021 19324 17828 19108 18191 19257 18087 19310 18227 19492 18393 18997 18112 19286 18134 19437 18165 19602 18430 19521 18285 19518 18365 19710 18134 19310 18374 19837 18594 19705 18286 19399 18233 19431 18206 19610 18341 19537 18316 19202 18473 19409 18244 19234 18214 19109 18057 19374 18186 19268 18081 19462 18304 19384 18315 19512 18579 19584 18473 19473 18377 19436 18328 19410 18166 19196 18266 19227 18321 19546 18669 19493 18475 19666 18346 19327 18283 19038 18392 19460 18561 19529 18359 19316 18402 19457 18182 19032 18242 19378 18464 19434 18506 19277 18758 19326 18525 19415 18384 19444 18399 19182 18410 19194 18235 19415 18629 19249 18430 19135 18204 19319 18570 19192 18502 19251 18626 19348 18562 19318 18718 19430 18394 19416 18644 19613 18605 19273 18667 19082 18620 19332 18492 19194 18607 19493 18382 19239 18632 19397 18659 19477 18710 19475 18868 19197 18652 19583 18570 19434 18809 19501 18974 19474 18743 19307 18979 19363 18688 19697 18688 19797 18925 19302 18834 19893 18660 19458 19078 19638 19088 19430 19063 19941 19290 19929 19087 19746 19171 19588 19213 19899 19242 19964 18997 19744 19408 19963 19577 20147 19209 19894 19357 20063 19348 20003 19664 19935 19519 19897 19329 19948 19424 20036 19507 19989 19421 20141 19309 20039 19593 20266 19543 20195 19313 20262 19797 20433 19713 20418 19708 20285 19510 20581 19708 20456 19941 20409 19988 20419 19772 20374 20060 20314 19863 20680 19868 20534 19891 20235 20017 20563 20150 20643 20045 20719 19981 20434 19904 20502 20006 20517 20117 20813 20284 20668 20053 20516 20258 20654 20220 20623 20086 20710 20113 20937 20244 20578 19997 20697 20256 20766 20247 20645 20361 20637 19969 20591 20140 20659 20153 20701 20340 20648 20365 20670 20084 20820 20108 20912 20225 20688 20263 20628 20078 20667 20239 20939 20357 20869 20304 20756 20231 20729 20186 20951 20198 20812 20433 20688 20070 20615 19986 20812 20261 20471 20440 20669 20319 20669 19881 20677 20030 20335 20241 20537 19993 20761 19915 20541 20273 20637 20011 20270 19957 20523 19957 20540 19850 20476 19837 20422 19806 20097 20049 20304 19782 20232 19852 20030 19857 20418 19857 19924 19904 20033 19597 19868 19899 20072 19675 19739 19477 19846 19360 19959 19596 19776 19393 19741 19194 19372 19413 19930 19323 19382 19378 19381 19103 19718 19115 19343 19010 19704 19146 19551 18887 19475 19057 19135 18958 19380 18906 19111 18980 19286 18814 19098 18752 19254 18888 18997 18748 18943 18285 19042 18367 18799 18550 18722 18341 18895 18367 18309 18430 18444 18109 18713 17947 18339 17994 18348 18037 18582 17800 18277 17861 18155 18008 18286 17870 18020 17572 18097 17594 18012 17517 17497 17223 17841 17588 17723 17568 17659 17281 17557 17228 17560 17209 17542 16933 17351 16786 17227 17353 17139 16862 17326 17027 17194 16803 17015 16516 17233 16800 16959 16629 16813 16485 16483 16398 16567 16452 16493 16329 16221 16310 16448 16080 16514 16036 16358 16104 16145 15854 16139 15859 16112 15878 16053 15799 15997 15558 15817 15705 15786 15349 15783 15233 15526 15281 15473 15101 15322 15155 15051 14996 15393 14916 15223 14754 15055 14600 15180 14684 14981 14547 14956 14676 14546 14300 14405 14396 14609 14463 14568 14154 14351 14078 14493 14101 14251 13851 14187 13645 13955 13839 14001 13623 13956 13482 14016 13523 13563 13341 13574 13174 13707 13463 13507 13346 13451 13195 13535 13009 13156 13051 13222 12758 13098 12770 13049 12585 12900 12594 12783 12412 12780 12386 12402 12305 12432 12140 12461 11894 12252 12024 12231 12155 12008 11654 12344 11708 11997 11611 11861 11651 11984 11701 11760 11423 11611 11272 11494 11120 11396 11264 11123 11120 11169 10930 11033 10805 11099 10723 10767 10664 10846 10711 10809 10482 10716 10275 10559 10439 10446 10101 10321 10311 10312 10097 10264 9957 10285 9946 10120 9971 10042 9879 9987 9798 10088 9556 9645 9553 9543 9474 9524 9313 9479 9435 9557 9074 9656 9178 9506 9116 9221 8912 9236 9067 9306 8985 9099 8765 8836 8878 8849 8677 8930 8571 8805 8692 8602 8452 8478 8371 8480 8421 8386 8174 8324 8031 8476 7905 8193 8117 8168 7852 7919 7778 7839 7735 7712 7613 7683 7630 7773 7513 1253756 ];
Traffic[0]class1Average hops = 1 (93864269 samples)
traffic_manager/hop_stats_freq = [ 0 93864269 0 0 0 0 0 0 0 0 0 0 0 0 0 0 0 0 0 0 ];
=======Traffic[1]class0 ======
Traffic[1]class0Overall average latency = 7.9914 (2 samples)
Traffic[1]class0Overall average accepted rate = 0.0563263 (2 samples)
Traffic[1]class0Overall min accepted rate = 0 (2 samples)
traffic_manager/latency_stat_0_freq = [ 0 14891136 956370 522946 1109416 5936844 1247382 1102891 1958385 3623909 1075852 880740 906178 960034 893124 609860 4257179 1013215 718948 684249 790352 828730 314691 236083 229505 240230 260752 103853 75465 72815 73602 87851 36186 22689 22315 22830 29982 13001 6937 7302 7225 10394 4682 2185 2251 2566 4344 1313 721 634 961 1593 385 189 141 207 343 51 43 23 54 89 15 9 1 16 33 8 2 1 2 3 0 1 5 5 6 0 0 0 0 0 0 0 0 0 0 0 0 0 0 0 0 0 0 0 0 0 0 0 0 0 0 0 0 0 0 0 0 0 0 0 0 0 0 0 0 0 0 0 0 0 0 0 0 0 0 0 0 0 0 0 0 0 0 0 0 0 0 0 0 0 0 0 0 0 0 0 0 0 0 0 0 0 0 0 0 0 0 0 0 0 0 0 0 0 0 0 0 0 0 0 0 0 0 0 0 0 0 0 0 0 0 0 0 0 0 0 0 0 0 0 0 0 0 0 0 0 0 0 0 0 0 0 0 0 0 0 0 0 0 0 0 0 0 0 0 0 0 0 0 0 0 0 0 0 0 0 0 0 0 0 0 0 0 0 0 0 0 0 0 0 0 0 0 0 0 0 0 0 0 0 0 0 0 0 0 0 0 0 0 0 0 0 0 0 0 0 0 0 0 0 0 0 0 0 0 0 0 0 0 0 0 0 0 0 0 0 0 0 0 0 0 0 0 0 0 0 0 0 0 0 0 0 0 0 0 0 0 0 0 0 0 0 0 0 0 0 0 0 0 0 0 0 0 0 0 0 0 0 0 0 0 0 0 0 0 0 0 0 0 0 0 0 0 0 0 0 0 0 0 0 0 0 0 0 0 0 0 0 0 0 0 0 0 0 0 0 0 0 0 0 0 0 0 0 0 0 0 0 0 0 0 0 0 0 0 0 0 0 0 0 0 0 0 0 0 0 0 0 0 0 0 0 0 0 0 0 0 0 0 0 0 0 0 0 0 0 0 0 0 0 0 0 0 0 0 0 0 0 0 0 0 0 0 0 0 0 0 0 0 0 0 0 0 0 0 0 0 0 0 0 0 0 0 0 0 0 0 0 0 0 0 0 0 0 0 0 0 0 0 0 0 0 0 0 0 0 0 0 0 0 0 0 0 0 0 0 0 0 0 0 0 0 0 0 0 0 0 0 0 0 0 0 0 0 0 0 0 0 0 0 0 0 0 0 0 0 0 0 0 0 0 0 0 0 0 0 0 0 0 0 0 0 0 0 0 0 0 0 0 0 0 0 0 0 0 0 0 0 0 0 0 0 0 0 0 0 0 0 0 0 0 0 0 0 0 0 0 0 0 0 0 0 0 0 0 0 0 0 0 0 0 0 0 0 0 0 0 0 0 0 0 0 0 0 0 0 0 0 0 0 0 0 0 0 0 0 0 0 0 0 0 0 0 0 0 0 0 0 0 0 0 0 0 0 0 0 0 0 0 0 0 0 0 0 0 0 0 0 0 0 0 0 0 0 0 0 0 0 0 0 0 0 0 0 0 0 0 0 0 0 0 0 0 0 0 0 0 0 0 0 0 0 0 0 0 0 0 0 0 0 0 0 0 0 0 0 0 0 0 0 0 0 0 0 0 0 0 0 0 0 0 0 0 0 0 0 0 0 0 0 0 0 0 0 0 0 0 0 0 0 0 0 0 0 0 0 0 0 0 0 0 0 0 0 0 0 0 0 0 0 0 0 0 0 0 0 0 0 0 0 0 0 0 0 0 0 0 0 0 0 0 0 0 0 0 0 0 0 0 0 0 0 0 0 0 0 0 0 0 0 0 0 0 0 0 0 0 0 0 0 0 0 0 0 0 0 0 0 0 0 0 0 0 0 0 0 0 0 0 0 0 0 0 0 0 0 0 0 0 0 0 0 0 0 0 0 0 0 0 0 0 0 0 0 0 0 0 0 0 0 0 0 0 0 0 0 0 0 0 0 0 0 0 0 0 0 0 0 0 0 0 0 0 0 0 0 0 0 0 0 0 0 0 0 0 0 0 0 0 0 0 0 0 0 0 0 0 0 0 0 0 0 0 0 0 0 0 0 0 0 0 0 0 0 0 0 0 0 0 0 0 0 0 0 0 0 0 0 0 0 0 0 0 0 0 0 0 0 0 0 0 0 0 0 0 0 0 0 0 0 0 0 0 0 0 0 0 0 0 0 0 0 0 0 0 0 0 0 0 0 0 0 0 0 0 0 0 0 0 0 0 0 0 0 0 0 0 0 0 0 0 0 0 0 0 0 0 0 0 0 0 0 0 0 0 0 0 0 ];
Traffic[1]class1Average hops = 1 (93864269 samples)
traffic_manager/hop_stats_freq = [ 0 93864269 0 0 0 0 0 0 0 0 0 0 0 0 0 0 0 0 0 0 ];
----------------------------END-of-Interconnect-DETAILS-------------------------

gpgpu_simulation_time = 0 days, 11 hrs, 47 min, 27 sec (42447 sec)
gpgpu_simulation_rate = 26661 (inst/sec)
gpgpu_simulation_rate = 2364 (cycle/sec)
timestep: 2
LBM_allocateGrid: allocated 185.2 MByte
GPGPU-Sim: synchronize waiting for inactive GPU simulation
GPGPU-Sim API: Stream Manager State
GPGPU-Sim: detected inactive GPU simulation thread
LBM_showGridStatistics:
	nObstacleCells:  343321 nAccelCells:   26912 nFluidCells: 1789767
	minRho:   0.9961 maxRho:   1.0039 mass: 2.160000e+06
	minU: 0.000000e+00 maxU: 4.025417e-03

