

        *** GPGPU-Sim Simulator Version 3.2.1  [build 15629] ***


               1=functional simulation only, 0=detailed performance simulator)
GPGPU-Sim: Configuration options:

-network_mode                           1 # Interconnection network mode
-inter_config_file   config_fermi_islip.icnt # Interconnection network config file
-gpgpu_ptx_use_cuobjdump                    1 # Use cuobjdump to extract ptx and sass from binaries
-gpgpu_experimental_lib_support                    0 # Try to extract code from cuda libraries [Broken because of unknown cudaGetExportTable]
-gpgpu_ptx_convert_to_ptxplus                    0 # Convert SASS (native ISA) to ptxplus and run ptxplus
-gpgpu_ptx_force_max_capability                   20 # Force maximum compute capability
-gpgpu_ptx_inst_debug_to_file                    0 # Dump executed instructions' debug information to file
-gpgpu_ptx_inst_debug_file       inst_debug.txt # Executed instructions' debug output file
-gpgpu_ptx_inst_debug_thread_uid                    1 # Thread UID for executed instructions' debug output
-gpgpu_simd_model                       1 # 1 = post-dominator
-gpgpu_shader_core_pipeline              1536:32 # shader core pipeline config, i.e., {<nthread>:<warpsize>}
-gpgpu_tex_cache:l1  4:128:24,L:R:m:N,F:128:4,128:2 # per-shader L1 texture cache  (READ-ONLY) config  {<nsets>:<bsize>:<assoc>,<rep>:<wr>:<alloc>:<wr_alloc>,<mshr>:<N>:<merge>,<mq>:<rf>}
-gpgpu_const_cache:l1 64:64:2,L:R:f:N,A:2:32,4 # per-shader L1 constant memory cache  (READ-ONLY) config  {<nsets>:<bsize>:<assoc>,<rep>:<wr>:<alloc>:<wr_alloc>,<mshr>:<N>:<merge>,<mq>} 
-gpgpu_cache:il1     4:128:4,L:R:f:N,A:2:32,4 # shader L1 instruction cache config  {<nsets>:<bsize>:<assoc>,<rep>:<wr>:<alloc>:<wr_alloc>,<mshr>:<N>:<merge>,<mq>} 
-gpgpu_cache:dl1     32:128:4,L:L:m:N,A:32:8,8 # per-shader L1 data cache config  {<nsets>:<bsize>:<assoc>,<rep>:<wr>:<alloc>:<wr_alloc>,<mshr>:<N>:<merge>,<mq> | none}
-gpgpu_perfect_mem                      0 # enable perfect memory mode (no cache miss)
-n_regfile_gating_group                    4 # group of lanes that should be read/written together)
-gpgpu_clock_gated_reg_file                    0 # enable clock gated reg file for power calculations
-gpgpu_clock_gated_lanes                    0 # enable clock gated lanes for power calculations
-gpgpu_shader_registers                32768 # Number of registers per shader core. Limits number of concurrent CTAs. (default 8192)
-gpgpu_shader_cta                       8 # Maximum number of concurrent CTAs in shader (default 8)
-gpgpu_n_clusters                      14 # number of processing clusters
-gpgpu_n_cores_per_cluster                    1 # number of simd cores per cluster
-gpgpu_n_cluster_ejection_buffer_size                    8 # number of packets in ejection buffer
-gpgpu_n_ldst_response_buffer_size                    2 # number of response packets in ld/st unit ejection buffer
-gpgpu_shmem_size                   16384 # Size of shared memory per shader core (default 16kB)
-gpgpu_shmem_num_banks                   32 # Number of banks in the shared memory in each shader core (default 16)
-gpgpu_shmem_limited_broadcast                    0 # Limit shared memory to do one broadcast per cycle (default on)
-gpgpu_shmem_warp_parts                    1 # Number of portions a warp is divided into for shared memory bank conflict check 
-gpgpu_warpdistro_shader                   -1 # Specify which shader core to collect the warp size distribution from
-gpgpu_warp_issue_shader                    0 # Specify which shader core to collect the warp issue distribution from
-gpgpu_local_mem_map                    1 # Mapping from local memory space address to simulated GPU physical address space (default = enabled)
-gpgpu_num_reg_banks                   16 # Number of register banks (default = 8)
-gpgpu_reg_bank_use_warp_id                    0 # Use warp ID in mapping registers to banks (default = off)
-gpgpu_operand_collector_num_units_sp                    6 # number of collector units (default = 4)
-gpgpu_operand_collector_num_units_sfu                    8 # number of collector units (default = 4)
-gpgpu_operand_collector_num_units_mem                    2 # number of collector units (default = 2)
-gpgpu_operand_collector_num_units_gen                    0 # number of collector units (default = 0)
-gpgpu_operand_collector_num_in_ports_sp                    2 # number of collector unit in ports (default = 1)
-gpgpu_operand_collector_num_in_ports_sfu                    1 # number of collector unit in ports (default = 1)
-gpgpu_operand_collector_num_in_ports_mem                    1 # number of collector unit in ports (default = 1)
-gpgpu_operand_collector_num_in_ports_gen                    0 # number of collector unit in ports (default = 0)
-gpgpu_operand_collector_num_out_ports_sp                    2 # number of collector unit in ports (default = 1)
-gpgpu_operand_collector_num_out_ports_sfu                    1 # number of collector unit in ports (default = 1)
-gpgpu_operand_collector_num_out_ports_mem                    1 # number of collector unit in ports (default = 1)
-gpgpu_operand_collector_num_out_ports_gen                    0 # number of collector unit in ports (default = 0)
-gpgpu_coalesce_arch                   13 # Coalescing arch (default = 13, anything else is off for now)
-gpgpu_num_sched_per_core                    2 # Number of warp schedulers per core
-gpgpu_max_insn_issue_per_warp                    1 # Max number of instructions that can be issued per warp in one cycle by scheduler
-gpgpu_simt_core_sim_order                    1 # Select the simulation order of cores in a cluster (0=Fix, 1=Round-Robin)
-gpgpu_pipeline_widths        2,1,1,2,1,1,2 # Pipeline widths ID_OC_SP,ID_OC_SFU,ID_OC_MEM,OC_EX_SP,OC_EX_SFU,OC_EX_MEM,EX_WB
-gpgpu_num_sp_units                     2 # Number of SP units (default=1)
-gpgpu_num_sfu_units                    1 # Number of SF units (default=1)
-gpgpu_num_mem_units                    1 # Number if ldst units (default=1) WARNING: not hooked up to anything
-gpgpu_scheduler                      lrr # Scheduler configuration: < lrr | gto | two_level_active > If two_level_active:<num_active_warps>:<inner_prioritization>:<outer_prioritization>For complete list of prioritization values see shader.h enum scheduler_prioritization_typeDefault: gto
-gpgpu_dram_scheduler                    1 # 0 = fifo, 1 = FR-FCFS (defaul)
-gpgpu_dram_partition_queues              8:8:8:8 # i2$:$2d:d2$:$2i
-l2_ideal                               0 # Use a ideal L2 cache that always hit
-gpgpu_cache:dl2     64:128:16,L:B:m:W,A:32:4,4 # unified banked L2 data cache config  {<nsets>:<bsize>:<assoc>,<rep>:<wr>:<alloc>:<wr_alloc>,<mshr>:<N>:<merge>,<mq>}
-gpgpu_cache:dl2_texture_only                    0 # L2 cache used for texture only
-gpgpu_n_mem                            5 # number of memory modules (e.g. memory controllers) in gpu
-gpgpu_n_mem_per_ctrlr                    2 # number of memory chips per memory controller
-gpgpu_memlatency_stat                   14 # track and display latency statistics 0x2 enables MC, 0x4 enables queue logs
-gpgpu_frfcfs_dram_sched_queue_size                   16 # 0 = unlimited (default); # entries per chip
-gpgpu_dram_return_queue_size                    0 # 0 = unlimited (default); # entries per chip
-gpgpu_dram_buswidth                    4 # default = 4 bytes (8 bytes per cycle at DDR)
-gpgpu_dram_burst_length                    8 # Burst length of each DRAM request (default = 4 data bus cycle)
-dram_data_command_freq_ratio                    4 # Frequency ratio between DRAM data bus and command bus (default = 2 times, i.e. DDR)
-gpgpu_dram_timing_opt nbk=16:CCD=2:RRD=6:RCD=12:RAS=28:RP=12:RC=40: CL=12:WL=4:CDLR=5:WR=12:nbkgrp=4:CCDL=3:RTPL=2 # DRAM timing parameters = {nbk:tCCD:tRRD:tRCD:tRAS:tRP:tRC:CL:WL:tCDLR:tWR:nbkgrp:tCCDL:tRTPL}
-rop_latency                           60 # ROP queue latency (default 85)
-dram_latency                          50 # DRAM latency (default 30)
-gpgpu_mem_addr_mapping dramid@8;00000000.00000000.00000000.00000000.0000RRRR.RRRRRRRR.BBBBCCCC.CCSSSSSS # mapping memory address to dram model {dramid@<start bit>;<memory address map>}
-gpgpu_mem_addr_test                    0 # run sweep test to check address mapping for aliased address
-gpgpu_mem_address_mask                    1 # 0 = old addressing mask, 1 = new addressing mask, 2 = new add. mask + flipped bank sel and chip sel bits
-gpuwattch_xml_file         gpuwattch.xml # GPUWattch XML file
-power_simulation_enabled                    1 # Turn on power simulator (1=On, 0=Off)
-power_per_cycle_dump                    0 # Dump detailed power output each cycle
-power_trace_enabled                    1 # produce a file for the power trace (1=On, 0=Off)
-power_trace_zlevel                     6 # Compression level of the power trace output log (0=no comp, 9=highest)
-steady_power_levels_enabled                    0 # produce a file for the steady power levels (1=On, 0=Off)
-steady_state_definition                  8:4 # allowed deviation:number of samples
-gpgpu_max_cycle                        0 # terminates gpu simulation early (0 = no limit)
-gpgpu_max_insn                         0 # terminates gpu simulation early (0 = no limit)
-gpgpu_max_cta                          0 # terminates gpu simulation early (0 = no limit)
-gpgpu_runtime_stat                   500 # display runtime statistics such as dram utilization {<freq>:<flag>}
-gpgpu_flush_l1_cache                    0 # Flush L1 cache at the end of each kernel call
-gpgpu_flush_l2_cache                    0 # Flush L2 cache at the end of each kernel call
-gpgpu_deadlock_detect                    1 # Stop the simulation at deadlock (1=on (default), 0=off)
-gpgpu_ptx_instruction_classification                    0 # if enabled will classify ptx instruction types per kernel (Max 255 kernels now)
-gpgpu_ptx_sim_mode                     0 # Select between Performance (default) or Functional simulation (1)
-gpgpu_clock_domains 300.0:600.0:300.0:900.0 # Clock Domain Frequencies in MhZ {<Core Clock>:<ICNT Clock>:<L2 Clock>:<DRAM Clock>}
-gpgpu_max_concurrent_kernel                    8 # maximum kernels that can run concurrently on GPU
-gpgpu_cflog_interval                    0 # Interval between each snapshot in control flow logger
-visualizer_enabled                     0 # Turn on visualizer output (1=On, 0=Off)
-visualizer_outputfile                 NULL # Specifies the output log file for visualizer
-visualizer_zlevel                      6 # Compression level of the visualizer output log (0=no comp, 9=highest)
-trace_enabled                          0 # Turn on traces
-trace_components                    none # comma seperated list of traces to enable. Complete list found in trace_streams.tup. Default none
-trace_sampling_core                    0 # The core which is printed using CORE_DPRINTF. Default 0
-enable_ptx_file_line_stats                    1 # Turn on PTX source line statistic profiling. (1 = On)
-ptx_line_stats_filename gpgpu_inst_stats.txt # Output file for PTX source line statistics.
-save_embedded_ptx                      0 # saves ptx files embedded in binary as <n>.ptx
-keep                                   0 # keep intermediate files created by GPGPU-Sim when interfacing with external programs
-gpgpu_ptx_save_converted_ptxplus                    0 # Saved converted ptxplus to a file
-ptx_opcode_latency_int         4,13,4,5,145 # Opcode latencies for integers <ADD,MAX,MUL,MAD,DIV>Default 1,1,19,25,145
-ptx_opcode_latency_fp          4,13,4,5,39 # Opcode latencies for single precision floating points <ADD,MAX,MUL,MAD,DIV>Default 1,1,1,1,30
-ptx_opcode_latency_dp         8,19,8,8,330 # Opcode latencies for double precision floating points <ADD,MAX,MUL,MAD,DIV>Default 8,8,8,8,335
-ptx_opcode_initiation_int            1,2,2,1,8 # Opcode initiation intervals for integers <ADD,MAX,MUL,MAD,DIV>Default 1,1,4,4,32
-ptx_opcode_initiation_fp            1,2,1,1,4 # Opcode initiation intervals for single precision floating points <ADD,MAX,MUL,MAD,DIV>Default bb82a2877888fb86c07f0bcf167030df  /tmp/tmp.IeOD14Mi7L/cutcp__SIZE1_1
1,1,1,1,5
-ptx_opcode_initiation_dp         8,16,8,8,130 # Opcode initiation intervals for double precision floating points <ADD,MAX,MUL,MAD,DIV>Default 8,8,8,8,130
DRAM Timing Options:
nbk                                    16 # number of banks
CCD                                     2 # column to column delay
RRD                                     6 # minimal delay between activation of rows in different banks
RCD                                    12 # row to column delay
RAS                                    28 # time needed to activate row
RP                                     12 # time needed to precharge (deactivate) row
RC                                     40 # row cycle time
CDLR                                    5 # switching from write to read (changes tWTR)
WR                                     12 # last data-in to row precharge
CL                                     12 # CAS latency
WL                                      4 # Write latency
nbkgrp                                  4 # number of bank groups
CCDL                                    3 # column to column delay between accesses to different bank groups
RTPL                                    2 # read to precharge delay between accesses to different bank groups
addr_dec_mask[CHIP]  = 0000000000000000 	high:64 low:0
addr_dec_mask[BK]    = 000000000000f000 	high:16 low:12
addr_dec_mask[ROW]   = 000000000fff0000 	high:28 low:16
addr_dec_mask[COL]   = 0000000000000fff 	high:12 low:0
addr_dec_mask[BURST] = 000000000000003f 	high:6 low:0
*** Initializing Memory Statistics ***
self exe links to: /tmp/tmp.IeOD14Mi7L/cutcp__SIZE1_1
Running md5sum using "md5sum /tmp/tmp.IeOD14Mi7L/cutcp__SIZE1_1 "
Running cuobjdump using "$CUDA_INSTALL_PATH/bin/cuobjdump -ptx -elf -sass /tmp/tmp.IeOD14Mi7L/cutcp__SIZE1_1 > _cuobjdump_complete_output_sTMhRk"
Parsing file _cuobjdump_complete_output_sTMhRk
######### cuobjdump parser ########
## Adding new section PTX
Adding ptx filename: _cuobjdump_1.ptx
Adding arch: sm_13
Adding identifier: benchmarks/cutcp/cutcp.cu
## Adding new section ELF
Adding arch: sm_13
Adding identifier: benchmarks/cutcp/cutcp.cu
Done parsing!!!
Adding _cuobjdump_1.ptx with cubin handle 1
Running: cat _ptx_HbzuvA | sed 's/.version 1.5/.version 1.4/' | sed 's/, texmode_independent//' | sed 's/\(\.extern \.const\[1\] .b8 \w\+\)\[\]/\1\[1\]/' | sed 's/const\[.\]/const\[0\]/g' > _ptx2_D7NH9P
GPGPU-Sim PTX registering constant NbrListLen (4 bytes) to name mapping
GPGPU-Sim PTX registering constant NbrList (15972 bytes) to name mapping
read 96603 atoms from file '/home/cnugteren/software/parboil-2.5/datasets/cutcp/large/input/watbox.sl100.pqr'
extent of domain is:
  minimum -49.998 -49.997 -49.996
  maximum 50 49.99 49.971
padding domain by 0.5 Angstroms
domain lengths are 100.998 by 100.987 by 100.967

Invoking CUDA kernel on 2 region planes...
  computing plane 0
kernel '_Z29cuda_cutoff_potential_latticeiiP6float4fffPfi' transfer to GPU hardware scheduler
kernel_name = _Z29cuda_cutoff_potential_latticeiiP6float4fffPfi 
kernel_launch_uid = 1 
gpu_sim_cycle = 18189534
gpu_sim_insn = 12113348856
gpu_ipc =     665.9515
gpu_tot_sim_cycle = 18189534
gpu_tot_sim_insn = 12113348856
gpu_tot_ipc =     665.9515
gpu_tot_issued_cta = 0
gpu_stall_dramfull = 6198
gpu_stall_icnt2sh    = 47651
gpu_total_sim_rate=624431
Cache L1D_000:	Size = 16384 B (32 Set x 4-way x 128 byte line)
		Access = 128640, Miss = 61437 (0.478), PendingHit = 100 (0.000777)
Cache L1D_001:	Size = 16384 B (32 Set x 4-way x 128 byte line)
		Access = 128640, Miss = 60438 (0.47), PendingHit = 67 (0.000521)
Cache L1D_002:	Size = 16384 B (32 Set x 4-way x 128 byte line)
		Access = 128640, Miss = 57860 (0.45), PendingHit = 856 (0.00665)
Cache L1D_003:	Size = 16384 B (32 Set x 4-way x 128 byte line)
		Access = 129980, Miss = 59017 (0.454), PendingHit = 231 (0.00178)
Cache L1D_004:	Size = 16384 B (32 Set x 4-way x 128 byte line)
		Access = 130650, Miss = 60155 (0.46), PendingHit = 765 (0.00586)
Cache L1D_005:	Size = 16384 B (32 Set x 4-way x 128 byte line)
		Access = 129980, Miss = 55705 (0.429), PendingHit = 1150 (0.00885)
Cache L1D_006:	Size = 16384 B (32 Set x 4-way x 128 byte line)
		Access = 129980, Miss = 59004 (0.454), PendingHit = 87 (0.000669)
Cache L1D_007:	Size = 16384 B (32 Set x 4-way x 128 byte line)
		Access = 129310, Miss = 58745 (0.454), PendingHit = 301 (0.00233)
Cache L1D_008:	Size = 16384 B (32 Set x 4-way x 128 byte line)
		Access = 129310, Miss = 58538 (0.453), PendingHit = 403 (0.00312)
Cache L1D_009:	Size = 16384 B (32 Set x 4-way x 128 byte line)
		Access = 129310, Miss = 59870 (0.463), PendingHit = 223 (0.00172)
Cache L1D_010:	Size = 16384 B (32 Set x 4-way x 128 byte line)
		Access = 129310, Miss = 61079 (0.472), PendingHit = 99 (0.000766)
Cache L1D_011:	Size = 16384 B (32 Set x 4-way x 128 byte line)
		Access = 129310, Miss = 60306 (0.466), PendingHit = 586 (0.00453)
Cache L1D_012:	Size = 16384 B (32 Set x 4-way x 128 byte line)
		Access = 129310, Miss = 59628 (0.461), PendingHit = 116 (0.000897)
Cache L1D_013:	Size = 16384 B (32 Set x 4-way x 128 byte line)
		Access = 129310, Miss = 60821 (0.47), PendingHit = 163 (0.00126)
total_dl1_misses=832603
total_dl1_accesses=1811680
total_dl1_miss_rate= 0.459575
Shader 0 dynamic_warp_id issue ditsribution:
dynamic_warp_id:
0, 1, 2, 3, 4, 5, 6, 7, 8, 9, 10, 11, 12, 13, 14, 15, 16, 17, 18, 19, 20, 21, 22, 23, 24, 25, 26, 27, 28, 29, 30, 31, 32, 33, 34, 35, 36, 37, 38, 39, 40, 41, 42, 43, 44, 45, 46, 47, 48, 49, 50, 51, 52, 53, 54, 55, 56, 57, 58, 59, 60, 61, 62, 63, 64, 65, 66, 67, 68, 69, 70, 71, 72, 73, 74, 75, 76, 77, 78, 79, 80, 81, 82, 83, 84, 85, 86, 87, 88, 89, 90, 91, 92, 93, 94, 95, 96, 97, 98, 99, 100, 101, 102, 103, 104, 105, 106, 107, 108, 109, 110, 111, 112, 113, 114, 115, 116, 117, 118, 119, 120, 121, 122, 123, 124, 125, 126, 127, 128, 129, 130, 131, 132, 133, 134, 135, 136, 137, 138, 139, 140, 141, 142, 143, 144, 145, 146, 147, 148, 149, 150, 151, 152, 153, 154, 155, 156, 157, 158, 159, 160, 161, 162, 163, 164, 165, 166, 167, 168, 169, 170, 171, 172, 173, 174, 175, 176, 177, 178, 179, 180, 181, 182, 183, 184, 185, 186, 187, 188, 189, 190, 191, 192, 193, 194, 195, 196, 197, 198, 199, 200, 201, 202, 203, 204, 205, 206, 207, 208, 209, 210, 211, 212, 213, 214, 215, 216, 217, 218, 219, 220, 221, 222, 223, 224, 225, 226, 227, 228, 229, 230, 231, 232, 233, 234, 235, 236, 237, 238, 239, 240, 241, 242, 243, 244, 245, 246, 247, 248, 249, 250, 251, 252, 253, 254, 255, 256, 257, 258, 259, 260, 261, 262, 263, 264, 265, 266, 267, 268, 269, 270, 271, 272, 273, 274, 275, 276, 277, 278, 279, 280, 281, 282, 283, 284, 285, 286, 287, 288, 289, 290, 291, 292, 293, 294, 295, 296, 297, 298, 299, 300, 301, 302, 303, 304, 305, 306, 307, 308, 309, 310, 311, 312, 313, 314, 315, 316, 317, 318, 319, 320, 321, 322, 323, 324, 325, 326, 327, 328, 329, 330, 331, 332, 333, 334, 335, 336, 337, 338, 339, 340, 341, 342, 343, 344, 345, 346, 347, 348, 349, 350, 351, 352, 353, 354, 355, 356, 357, 358, 359, 360, 361, 362, 363, 364, 365, 366, 367, 368, 369, 370, 371, 372, 373, 374, 375, 376, 377, 378, 379, 380, 381, 382, 383, 384, 385, 386, 387, 388, 389, 390, 391, 392, 393, 394, 395, 396, 397, 398, 399, 400, 401, 402, 403, 404, 405, 406, 407, 408, 409, 410, 411, 412, 413, 414, 415, 416, 417, 418, 419, 420, 421, 422, 423, 424, 425, 426, 427, 428, 429, 430, 431, 432, 433, 434, 435, 436, 437, 438, 439, 440, 441, 442, 443, 444, 445, 446, 447, 448, 449, 450, 451, 452, 453, 454, 455, 456, 457, 458, 459, 460, 461, 462, 463, 464, 465, 466, 467, 468, 469, 470, 471, 472, 473, 474, 475, 476, 477, 478, 479, 480, 481, 482, 483, 484, 485, 486, 487, 488, 489, 490, 491, 492, 493, 494, 495, 496, 497, 498, 499, 500, 501, 502, 503, 504, 505, 506, 507, 508, 509, 510, 511, 512, 513, 514, 515, 516, 517, 518, 519, 520, 521, 522, 523, 524, 525, 526, 527, 528, 529, 530, 531, 532, 533, 534, 535, 536, 537, 538, 539, 540, 541, 542, 543, 544, 545, 546, 547, 548, 549, 550, 551, 552, 553, 554, 555, 556, 557, 558, 559, 560, 561, 562, 563, 564, 565, 566, 567, 568, 569, 570, 571, 572, 573, 574, 575, 576, 577, 578, 579, 580, 581, 582, 583, 584, 585, 586, 587, 588, 589, 590, 591, 592, 593, 594, 595, 596, 597, 598, 599, 600, 601, 602, 603, 604, 605, 606, 607, 608, 609, 610, 611, 612, 613, 614, 615, 616, 617, 618, 619, 620, 621, 622, 623, 624, 625, 626, 627, 628, 629, 630, 631, 632, 633, 634, 635, 636, 637, 638, 639, 640, 641, 642, 643, 644, 645, 646, 647, 648, 649, 650, 651, 652, 653, 654, 655, 656, 657, 658, 659, 660, 661, 662, 663, 664, 665, 666, 667, 668, 669, 670, 671, 672, 673, 674, 675, 676, 677, 678, 679, 680, 681, 682, 683, 684, 685, 686, 687, 688, 689, 690, 691, 692, 693, 694, 695, 696, 697, 698, 699, 700, 701, 702, 703, 704, 705, 706, 707, 708, 709, 710, 711, 712, 713, 714, 715, 716, 717, 718, 719, 720, 721, 722, 723, 724, 725, 726, 727, 728, 729, 730, 731, 732, 733, 734, 735, 736, 737, 738, 739, 740, 741, 742, 743, 744, 745, 746, 747, 748, 749, 750, 751, 752, 753, 754, 755, 756, 757, 758, 759, 760, 761, 762, 763, 764, 765, 766, 767, 
distro:
26494, 27007, 26647, 27232, 27377, 27926, 27521, 28133, 26045, 26432, 26108, 26594, 26588, 27182, 26687, 27281, 27194, 27725, 27374, 27878, 27349, 27997, 27475, 28069, 15458, 15674, 15512, 15755, 31046, 31478, 31208, 31640, 31901, 32243, 32072, 32423, 32558, 32990, 32711, 33170, 31904, 32363, 32075, 32543, 32919, 33297, 33126, 33504, 32591, 33068, 32735, 33266, 21667, 21910, 21748, 22027, 23674, 23863, 23827, 23944, 28078, 28276, 28267, 28465, 37795, 38119, 38110, 38398, 37649, 38234, 37937, 38531, 38069, 38600, 38294, 38825, 37950, 38265, 38166, 38508, 36472, 36760, 36670, 37012, 33077, 33401, 33266, 33599, 41688, 41823, 42003, 42030, 42698, 42743, 42950, 42968, 43232, 43286, 43448, 43511, 43119, 43272, 43335, 43497, 41909, 41918, 42197, 42197, 43114, 43114, 43357, 43294, 22156, 22174, 22255, 22264, 27119, 27254, 27299, 27353, 42959, 43085, 43292, 43292, 43411, 43420, 43744, 43618, 43029, 43236, 43281, 43515, 43197, 43242, 43476, 43539, 42604, 42505, 42757, 42811, 43246, 43228, 43399, 43489, 22594, 22648, 22756, 22783, 32360, 32432, 32540, 32621, 43016, 43007, 43268, 43295, 43181, 43289, 43451, 43523, 44313, 44295, 44520, 44592, 44201, 44156, 44435, 44390, 44056, 44191, 44362, 44335, 38644, 38716, 38932, 38977, 32017, 32008, 32233, 32170, 38395, 38368, 38575, 38602, 42912, 42948, 43191, 43164, 45107, 45008, 45305, 45224, 43665, 43782, 43971, 44016, 42679, 42679, 42904, 42931, 38471, 38516, 38696, 38759, 34049, 34166, 34346, 34301, 37766, 37811, 37991, 38081, 44371, 44272, 44641, 44524, 44242, 44278, 44521, 44485, 43029, 42948, 43299, 43164, 42470, 42506, 42749, 42722, 43269, 43125, 43494, 43323, 33467, 33458, 33611, 33656, 32853, 32727, 33006, 32880, 43782, 43701, 44088, 44007, 42468, 42423, 42765, 42657, 43428, 43347, 43716, 43599, 42719, 42746, 43016, 42989, 43824, 43851, 44067, 44103, 39350, 39476, 39548, 39737, 26683, 26719, 26854, 26809, 42816, 42789, 43095, 43068, 43191, 43344, 43407, 43551, 44069, 44060, 44276, 44258, 43430, 43394, 43655, 43700, 44120, 44102, 44354, 44354, 43668, 43650, 43893, 43830, 28844, 28880, 29015, 29006, 37932, 37833, 38085, 38094, 42777, 42840, 43065, 43056, 42586, 42577, 42901, 42847, 43721, 43712, 44045, 43991, 42902, 42911, 43118, 43172, 43465, 43501, 43663, 43807, 33714, 33723, 33921, 33939, 27501, 27537, 27627, 27681, 42987, 43014, 43338, 43275, 44191, 44209, 44452, 44416, 42991, 43036, 43252, 43378, 42984, 43047, 43245, 43191, 43510, 43591, 43798, 43780, 44224, 44341, 44566, 44593, 23093, 23048, 23237, 23183, 41914, 41797, 42139, 42076, 42502, 42610, 42790, 42844, 44041, 43969, 44266, 44221, 42459, 42351, 42639, 42612, 43296, 43341, 43521, 43620, 43609, 43510, 43843, 43798, 27825, 27888, 27987, 28023, 37350, 37305, 37557, 37548, 42900, 42891, 43161, 43125, 41498, 41534, 41750, 41723, 42305, 42134, 42584, 42539, 41760, 41859, 42003, 42093, 42745, 42655, 42988, 42916, 33046, 33046, 33244, 33298, 28166, 28211, 28310, 28355, 43034, 43097, 43304, 43313, 43840, 43840, 44110, 44065, 41656, 41611, 41917, 41890, 42667, 42676, 42892, 42901, 43080, 43008, 43323, 43359, 44070, 44034, 44313, 44250, 28654, 28600, 28807, 28735, 37863, 37899, 38169, 38124, 43159, 43249, 43402, 43411, 41683, 41674, 41953, 41845, 42111, 42102, 42408, 42345, 42410, 42338, 42671, 42563, 43731, 43641, 44046, 43893, 33024, 33141, 33204, 33339, 28397, 28451, 28505, 28559, 43769, 43742, 44039, 44057, 42292, 42328, 42490, 42517, 42952, 42817, 43132, 43123, 42905, 42887, 43103, 43157, 42703, 42712, 42937, 43018, 43402, 43411, 43600, 43582, 23075, 23093, 23174, 23183, 37406, 37343, 37613, 37604, 42953, 42836, 43232, 43106, 43395, 43413, 43674, 43683, 42291, 42390, 42552, 42579, 42312, 42402, 42600, 42681, 42261, 42252, 42558, 42387, 32706, 32724, 32949, 32850, 22441, 22432, 22567, 22558, 42479, 42317, 42668, 42560, 42337, 42301, 42589, 42580, 42142, 42124, 42466, 42403, 42817, 42754, 43060, 42970, 42569, 42587, 42758, 42785, 42521, 42665, 42701, 42863, 28610, 28601, 28736, 28727, 32122, 32122, 32329, 32392, 37417, 37345, 37570, 37561, 41982, 42135, 42252, 42306, 43940, 43958, 44228, 44219, 43995, 44130, 44238, 44391, 41908, 41980, 42214, 42160, 38260, 38314, 38539, 38593, 33778, 33751, 34030, 33922, 42405, 42378, 42612, 42648, 44251, 44305, 44566, 44548, 43490, 43526, 43805, 43814, 43029, 43011, 43200, 43299, 42431, 42359, 42656, 42611, 42616, 42589, 42904, 42904, 28006, 27943, 28168, 28159, 37504, 37567, 37711, 37774, 42699, 42600, 42888, 42843, 43385, 43385, 43682, 43583, 43054, 43063, 43261, 43270, 43062, 43044, 43431, 43269, 43883, 43865, 44189, 44063, 32815, 32941, 33049, 33067, 22460, 22505, 22622, 22685, 37909, 37792, 38143, 37972, 39150, 38943, 39438, 39195, 38922, 38688, 39156, 38958, 39350, 39188, 39593, 39413, 40530, 40224, 40701, 40386, 40252, 39964, 40441, 40279, 20926, 20836, 21034, 20908, 30252, 29982, 30369, 30063, 33117, 32820, 33297, 33000, 34365, 34032, 34626, 34257, 34730, 34424, 34964, 34613, 34918, 34549, 35116, 34729, 33846, 33513, 34008, 33702, 27145, 26785, 27379, 26947, 23453, 23093, 23534, 23219, 25471, 25075, 25624, 25210, 29305, 28792, 29386, 28891, 29418, 28887, 29589, 29067, 30245, 29660, 30371, 29804, 28789, 28285, 29041, 28510, 29351, 28838, 29504, 28973, 23611, 23134, 23773, 23242, 23735, 23222, 23843, 23330, 23628, 23160, 23772, 23250, 23809, 23278, 23953, 23350, 24331, 23737, 24421, 23845, 24077, 23564, 24194, 23672, 22922, 22517, 23093, 22625, 
gpgpu_n_tot_thrd_icount = 12911309440
gpgpu_n_tot_w_icount = 403478420
gpgpu_n_icache_hits = 219780655
gpgpu_n_icache_misses = 2037
gpgpu_n_l1dcache_read_hits = 973930
gpgpu_n_l1dcache_read_misses = 837750
gpgpu_n_l1dcache_write_accesses = 10816
gpgpu_n_l1dcache_wirte_misses = 10816
gpgpu_n_tcache_hits = 0
gpgpu_n_tcache_misses = 0
gpgpu_n_ccache_hits = 18206402
gpgpu_n_ccache_misses = 3410
gpgpu_n_stall_shd_mem = 2090192
gpgpu_n_mem_read_local = 0
gpgpu_n_mem_write_local = 0
gpgpu_n_mem_read_global = 832603
gpgpu_n_mem_write_global = 10816
gpgpu_n_mem_texture = 0
gpgpu_n_mem_const = 924
gpgpu_n_load_insn  = 57973760
gpgpu_n_store_insn = 692224
gpgpu_n_shmem_insn = 1435609022
gpgpu_n_tex_insn = 0
gpgpu_n_const_mem_insn = 87652864
gpgpu_n_param_mem_insn = 987034558
gpgpu_n_shmem_bkconflict = 0
gpgpu_n_cache_bkconflict = 0
gpgpu_n_intrawarp_mshr_merge = 0
gpgpu_n_cmem_portconflict = 283920
gpgpu_stall_shd_mem[c_mem][bk_conf] = 283920
gpgpu_stall_shd_mem[c_mem][mshr_rc] = 0
gpgpu_stall_shd_mem[c_mem][icnt_rc] = 0
gpgpu_stall_shd_mem[t_mem][mshr_rc] = 0
gpgpu_stall_shd_mem[t_mem][icnt_rc] = 0
gpgpu_stall_shd_mem[s_mem][bk_conf] = 903136
gpgpu_stall_shd_mem[gl_mem][bk_conf] = 0
gpgpu_stall_shd_mem[gl_mem][coal_stall] = 903136
gpgpu_stall_shd_mem[g_mem_ld][mshr_rc] = 0
gpgpu_stall_shd_mem[g_mem_ld][icnt_rc] = 0
gpgpu_stall_shd_mem[g_mem_ld][wb_icnt_rc] = 0
gpgpu_stall_shd_mem[g_mem_ld][wb_rsrv_fail] = 0
gpgpu_stall_shd_mem[g_mem_st][mshr_rc] = 0
gpgpu_stall_shd_mem[g_mem_st][icnt_rc] = 0
gpgpu_stall_shd_mem[g_mem_st][wb_icnt_rc] = 0
gpgpu_stall_shd_mem[g_mem_st][wb_rsrv_fail] = 0
gpgpu_stall_shd_mem[l_mem_ld][mshr_rc] = 0
gpgpu_stall_shd_mem[l_mem_ld][icnt_rc] = 0
gpgpu_stall_shd_mem[l_mem_ld][wb_icnt_rc] = 0
gpgpu_stall_shd_mem[l_mem_ld][wb_rsrv_fail] = 0
gpgpu_stall_shd_mem[l_mem_st][mshr_rc] = 0
gpgpu_stall_shd_mem[l_mem_st][icnt_rc] = 0
gpgpu_stall_shd_mem[l_mem_ld][wb_icnt_rc] = 0
gpgpu_stall_shd_mem[l_mem_ld][wb_rsrv_fail] = 0
gpu_reg_bank_conflict_stalls = 0
Warp Occupancy Distribution:
Stall:12263669	W0_Idle:96999	W0_Scoreboard:92562002	W1:1163250	W2:788031	W3:874305	W4:843480	W5:542115	W6:810153	W7:445527	W8:846018	W9:470268	W10:581112	W11:454743	W12:696015	W13:440748	W14:651438	W15:440217	W16:822593	W17:401139	W18:575964	W19:399249	W20:641556	W21:428319	W22:622890	W23:408276	W24:700578	W25:409419	W26:576828	W27:369378	W28:749367	W29:589293	W30:588303	W31:1062855	W32:384084993
maxmrqlatency = 18 
maxdqlatency = 0 
maxmflatency = 278 
averagemflatency = 69 
max_icnt2mem_latency = 149 
max_icnt2sh_latency = 18189533 
mrq_lat_table:22177 	1762 	3607 	1291 	3 	0 	0 	0 	0 	0 	0 	0 	0 	0 	0 	0 	0 	0 	0 	0 	0 	0 	0 	0 	0 	0 	0 	0 	0 	0 	0 	0 	
dq_lat_table:0 	0 	0 	0 	0 	0 	0 	0 	0 	0 	0 	0 	0 	0 	0 	0 	0 	0 	0 	0 	0 	0 	0 	0 	0 	0 	0 	0 	0 	0 	0 	0 	
mf_lat_table:0 	0 	0 	0 	0 	0 	837498 	6835 	10 	0 	0 	0 	0 	0 	0 	0 	0 	0 	0 	0 	0 	0 	0 	0 	0 	0 	0 	0 	0 	0 	0 	0 	
icnt2mem_lat_table:131 	832073 	11748 	186 	178 	142 	56 	11 	0 	0 	0 	0 	0 	0 	0 	0 	0 	0 	0 	0 	0 	0 	0 	0 	
icnt2sh_lat_table:0 	402117 	423856 	7512 	42 	0 	0 	0 	0 	0 	0 	0 	0 	0 	0 	0 	0 	168 	168 	392 	640 	1160 	2340 	4728 	
mf_lat_pw_table:1220 	0 	0 	0 	0 	0 	32830 	29 	0 	0 	0 	0 	0 	0 	0 	0 	0 	0 	0 	0 	0 	0 	0 	0 	0 	0 	0 	0 	0 	0 	0 	0 	
maximum concurrent accesses to same row:
dram[0]:        64        64        64        64        64        64        64        64        64        64        64        64        64        64        64        64 
dram[1]:        64        64        64        64        64        64        64        64        64        64        64        64        64        64        64        64 
dram[2]:        64        64        64        64        64        64        64        64        64        64        64        64        64        64        64        64 
dram[3]:        64        64        64        64        64        64        64        64        64        64        64        64        64        64        64        64 
dram[4]:        64        64        64        64        64        64        64        64        64        64        64        64        64        64        64        64 
maximum service time to same row:
dram[0]:   4561932   4547587   4680518   4546422   4546659   4772274   4666933   4417305   4600417   4634838   4501482   4495276   4620639   4558897   4425488   4544132 
dram[1]:   4561930   4547301   4680521   4546425   4546660   4772275   4666918   4417299   4600419   4634856   4506360   4495258   4620629   4558901   4429295   4544135 
dram[2]:   4561626   4552471   4675432   4546961   4566870   4778863   4668601   4416122   4633558   4652800   4481353   4487580   4626465   4559449   4428042   4548654 
dram[3]:   4554427   4548982   4675434   4540410   4566871   4778870   4677971   4416122   4633564   4652793   4431120   4518053   4626458   4559448   4434103   4549443 
dram[4]:   4546619   4556587   4676703   4535589   4601234   4777781   4685185   4379380   4638735   4647511   3877366   4530735   4622715   4555014   4426613   4567228 
average row accesses per activate:
dram[0]:  7.891304  8.000000  6.901961  9.777778 35.555557 29.090910 17.777779 18.105263 13.538462 10.444445  8.851064  9.454545 10.400000 11.151515 16.000000  8.000000 
dram[1]:  9.050000  8.000000  7.040000  8.186047 35.555557 29.090910 22.857143 18.105263 16.000000  8.545455  9.454545  9.674418  9.674418 11.030303 14.666667  7.822222 
dram[2]:  6.830189  8.000000  8.585366  7.822222 35.555557 29.090910 20.000000 20.352942 13.538462  9.894737  8.320000  9.244445 10.666667  9.282051 16.000000  7.183673 
dram[3]:  8.395349  7.333333  7.652174  8.186047 35.555557 24.615385 20.000000 23.066668 12.571428 10.000000  8.156863  9.904762 10.947369 11.677420 14.666667  7.333333 
dram[4]:  7.200000  8.186047  6.518518  8.333333 29.090910 29.090910 26.666666 20.352942 11.354838  9.500000  8.666667  9.454545  9.244445 11.030303 16.000000  8.186047 
average row locality = 28840/2677 = 10.773253
number of total memory accesses made:
dram[0]:         0         0         0         0         0         0         0         0         0         0         0         0         0         0         0         0 
dram[1]:         0         0         0         0         0         0         0         0         0         0         0         0         0         0         0         0 
dram[2]:         0         0         0         0         0         0         0         0         0         0         0         0         0         0         0         0 
dram[3]:         0         0         0         0         0         0         0         0         0         0         0         0         0         0         0         0 
dram[4]:         0         0         0         0         0         0         0         0         0         0         0         0         0         0         0         0 
total accesses: 0
min_bank_accesses = 0!
min_chip_accesses = 0!
number of total read accesses:
dram[0]:       235       224       224       224       192       192       192       216       224       236       256       256       256       232       224       224 
dram[1]:       234       224       224       224       192       192       192       216       224       236       256       256       256       230       224       224 
dram[2]:       234       224       224       224       192       192       192       218       224       236       256       256       256       228       224       224 
dram[3]:       233       224       224       224       192       192       192       218       224       238       256       256       256       228       224       224 
dram[4]:       232       224       224       222       192       192       192       218       224       238       256       256       256       230       224       224 
total reads: 18024
bank skew: 256/192 = 1.33
chip skew: 3607/3604 = 1.00
number of total write accesses:
dram[0]:       128       128       128       128       128       128       128       128       128       140       160       160       160       136       128       128 
dram[1]:       128       128       128       128       128       128       128       128       128       140       160       160       160       134       128       128 
dram[2]:       128       128       128       128       128       128       128       128       128       140       160       160       160       134       128       128 
dram[3]:       128       128       128       128       128       128       128       128       128       142       160       160       160       134       128       128 
dram[4]:       128       128       128       128       128       128       128       128       128       142       160       160       160       134       128       128 
total reads: 10816
bank skew: 160/128 = 1.25
chip skew: 2164/2162 = 1.00
average mf latency per bank:
dram[0]:       2027      2278      2605      1621      1475      2052      1668      1587      2580      2300      1743      2202      2063      1355      2221      2580
dram[1]:       2032      2290      2589      1616      1485      2053      1654      1588      2593      2294      1745      2209      2058      1363      2229      2578
dram[2]:       2046      2277      2589      1642      1477      2052      1662      1563      2590      2304      1744      2209      2078      1380      2210      2583
dram[3]:       2051      2263      2600      1669      1463      2038      1674      1543      2578      2289      1741      2202      2091      1386      2187      2595
dram[4]:       2048      2272      2597      1662      1462      2038      1674      1552      2572      2285      1744      2197      2080      1378      2198      2580
maximum mf latency per bank:
dram[0]:        151       138       141       137       184       137       137       251       155       137       188       157       137       188       179       138
dram[1]:        159       139       143       140       182       145       138       236       162       136       170       214       140       146       192       139
dram[2]:        136       142       143       134       190       160       135       278       158       137       194       183       138       150       225       137
dram[3]:        231       138       137       136       242       146       137       254       155       136       160       156       138       186       196       136
dram[4]:        180       135       135       138       182       143       136       218       178       140       157       153       137       208       170       137

Number of Memory Banks Accessed per Memory Operation per Warp (from 0):
0	0	0	0	0	0	0	0	0	0	0	0	0	0	0	0	0	0	0	0	0	0	0	0	0	0	0	0	0	0	0	0	0	0	0	0	0	0	0	0	0	0	0	0	0	0	0	0	0	0	0	0	0	0	0	0	0	0	0	0	0	0	0	0	0	0	0	0	0	0	0	0	0	0	0	0	0	0	0	0	
Average # of Memory Banks Accessed per Memory Operation per Warp=-nan

position of mrq chosen
0	0	0	0	0	0	0	0	0	0	0	0	0	0	0	0	

average position of mrq chosen = -nan
gpgpu_l2_write_miss = 0
gpgpu_l2_write_access = 0
gpgpu_l2_read_miss = 0
gpgpu_l2_read_access = 0
Cache L2_bank_000:
MSHR contents

DRAM[0]: 16 bks, busW=4 BL=8 CL=12, tRRD=2 tCCD=6, tRCD=12 tRAS=28 tRP=12 tRC=40
n_cmd=54568599 n_nop=54556019 n_act=527 n_pre=511 n_req=5771 n_rd=7214 n_write=4328 bw_util=0.000423
n_activity=100653 dram_eff=0.2293
bk0: 470a 54565989i bk1: 448a 54565745i bk2: 448a 54565830i bk3: 448a 54565803i bk4: 384a 54565616i bk5: 384a 54565502i bk6: 384a 54565482i bk7: 432a 54565452i bk8: 448a 54565144i bk9: 472a 54565254i bk10: 512a 54565320i bk11: 512a 54565969i bk12: 512a 54564394i bk13: 464a 54564406i bk14: 448a 54564042i bk15: 448a 54552127i 
dram_util_bins: 0 0 0 0 0 0 0 0 0 0
dram_eff_bins: 0 0 0 0 0 0 0 0 0 0
mrqq: max=3 avg=0.00044368
Cache L2_bank_001:
MSHR contents
MSHR: tag=0x80151680, atomic=0 1 entries : 0x9199f90 :  mf: uid=239825816, sid06:w09, part=1, addr=0x80151680, load , size=128, unknown  status = IN_PARTITION_DRAM (18189532), 

DRAM[1]: 16 bks, busW=4 BL=8 CL=12, tRRD=2 tCCD=6, tRCD=12 tRAS=28 tRP=12 tRC=40
n_cmd=54568599 n_nop=54556025 n_act=529 n_pre=513 n_req=5766 n_rd=7208 n_write=4324 bw_util=0.0004227
n_activity=100526 dram_eff=0.2294
bk0: 468a 54566027i bk1: 448a 54566067i bk2: 448a 54565972i bk3: 448a 54565676i bk4: 384a 54565362i bk5: 384a 54565650i bk6: 384a 54565802i bk7: 432a 54565683i bk8: 448a 54565225i bk9: 472a 54565245i bk10: 512a 54565238i bk11: 512a 54565938i bk12: 512a 54564287i bk13: 460a 54564163i bk14: 448a 54563813i bk15: 448a 54552062i 
dram_util_bins: 0 0 0 0 0 0 0 0 0 0
dram_eff_bins: 0 0 0 0 0 0 0 0 0 0
mrqq: max=4 avg=0.000440162
Cache L2_bank_002:
MSHR contents
MSHR: tag=0x80151780, atomic=0 1 entries : 0x9199d60 :  mf: uid=239825815, sid06:w11, part=2, addr=0x80151780, load , size=128, unknown  status = IN_PARTITION_DRAM (18189533), 

DRAM[2]: 16 bks, busW=4 BL=8 CL=12, tRRD=2 tCCD=6, tRCD=12 tRAS=28 tRP=12 tRC=40
n_cmd=54568599 n_nop=54555994 n_act=545 n_pre=529 n_req=5766 n_rd=7207 n_write=4324 bw_util=0.0004226
n_activity=101115 dram_eff=0.2281
bk0: 468a 54565901i bk1: 448a 54565787i bk2: 448a 54565809i bk3: 448a 54565925i bk4: 384a 54565582i bk5: 384a 54565785i bk6: 384a 54565631i bk7: 436a 54565834i bk8: 448a 54564934i bk9: 472a 54565328i bk10: 512a 54564977i bk11: 512a 54566007i bk12: 512a 54564313i bk13: 455a 54564345i bk14: 448a 54563954i bk15: 448a 54551680i 
dram_util_bins: 0 0 0 0 0 0 0 0 0 0
dram_eff_bins: 0 0 0 0 0 0 0 0 0 0
mrqq: max=3 avg=0.000440088
Cache L2_bank_003:
MSHR contents

DRAM[3]: 16 bks, busW=4 BL=8 CL=12, tRRD=2 tCCD=6, tRCD=12 tRAS=28 tRP=12 tRC=40
n_cmd=54568599 n_nop=54556009 n_act=534 n_pre=518 n_req=5769 n_rd=7210 n_write=4328 bw_util=0.0004229
n_activity=100895 dram_eff=0.2287
bk0: 466a 54565865i bk1: 448a 54565744i bk2: 448a 54565792i bk3: 448a 54565785i bk4: 384a 54565801i bk5: 384a 54565858i bk6: 384a 54565766i bk7: 436a 54565692i bk8: 448a 54564951i bk9: 476a 54565305i bk10: 512a 54565192i bk11: 512a 54565799i bk12: 512a 54564353i bk13: 456a 54564437i bk14: 448a 54563940i bk15: 448a 54551911i 
dram_util_bins: 0 0 0 0 0 0 0 0 0 0
dram_eff_bins: 0 0 0 0 0 0 0 0 0 0
mrqq: max=3 avg=0.000425556
Cache L2_bank_004:
MSHR contents

DRAM[4]: 16 bks, busW=4 BL=8 CL=12, tRRD=2 tCCD=6, tRCD=12 tRAS=28 tRP=12 tRC=40
n_cmd=54568599 n_nop=54555985 n_act=547 n_pre=531 n_req=5768 n_rd=7208 n_write=4328 bw_util=0.0004228
n_activity=101349 dram_eff=0.2276
bk0: 464a 54565562i bk1: 448a 54565615i bk2: 448a 54565811i bk3: 444a 54566015i bk4: 384a 54565549i bk5: 384a 54565539i bk6: 384a 54565539i bk7: 436a 54565772i bk8: 448a 54565278i bk9: 476a 54565416i bk10: 512a 54565235i bk11: 512a 54565979i bk12: 512a 54564484i bk13: 460a 54564329i bk14: 448a 54563906i bk15: 448a 54551472i 
dram_util_bins: 0 0 0 0 0 0 0 0 0 0
dram_eff_bins: 0 0 0 0 0 0 0 0 0 0
mrqq: max=4 avg=0.000443442
Cache L2_bank_000:	Size = 131072 B (64 Set x 16-way x 128 byte line)
		Access = 168922, Miss = 3607 (0.0214), PendingHit = 338 (0.002)
Cache L2_bank_001:	Size = 131072 B (64 Set x 16-way x 128 byte line)
		Access = 168884, Miss = 3604 (0.0213), PendingHit = 322 (0.00191)
Cache L2_bank_002:	Size = 131072 B (64 Set x 16-way x 128 byte line)
		Access = 168965, Miss = 3604 (0.0213), PendingHit = 336 (0.00199)
Cache L2_bank_003:	Size = 131072 B (64 Set x 16-way x 128 byte line)
		Access = 168959, Miss = 3605 (0.0213), PendingHit = 350 (0.00207)
Cache L2_bank_004:	Size = 131072 B (64 Set x 16-way x 128 byte line)
		Access = 168795, Miss = 3604 (0.0214), PendingHit = 339 (0.00201)
L2 Cache Total Miss Rate = 0.021

icnt_total_pkts_mem_to_simt=4177513
icnt_total_pkts_simt_to_mem=887789

LD_mem_lat_dist  0 0 0 0 0 0 0 0 0 0 0 0 0 0 0 0 0 0 0 0 0 0 0 0 0 0 0
ST_mem_lat_dist  0 0 0 0 0 0 0 0 0 0 0 0 0 0 0 0 0 0 0 0 0 0 0 0 0 0 0
Traffic 0 Stat
%=================================
% Average latency = 1.07093
% Accepted packets = 0 at node 0 (avg = 0.00106104)
lat(1) = 1.07093;
thru(1,:) = [ 0 0 0 0 0 0 0 0 0 0 0 0 0 0 0.00488132 0.00488006 0.00488229 0.00488234 0.00487783 0 0 0 0 ];
% latency change    = 1
% throughput change = 1
Traffic 1 Stat
%=================================
% Average latency = 6.8381
% Accepted packets = 0 at node 14 (avg = 0.00499273)
lat(2) = 6.8381;
thru(2,:) = [ 0.00847234 0.00833504 0.00798072 0.00813996 0.00829647 0.00768475 0.00813817 0.00810246 0.00807401 0.00825708 0.00842325 0.00831701 0.00822382 0.00838779 0 0 0 0 0 0 0 0 0 ];
% latency change    = 0.843388
% throughput change = 0.787484
----------------------------Interconnect-DETAILS---------------------------------=======Traffic[0]class0 ======
Traffic[0]class0Overall average latency = 1.07093 (1 samples)
Traffic[0]class0Overall average accepted rate = 0.00106104 (1 samples)
Traffic[0]class0Overall min accepted rate = 0 (1 samples)
traffic_manager/latency_stat_0_freq = [ 0 828284 4784 213 152 7455 1120 344 1557 411 123 13 3 10 1 7 0 18 1 6 0 5 0 1 0 3 0 0 0 4 0 3 0 3 0 0 0 0 0 2 0 2 0 0 0 0 0 0 0 0 0 0 0 0 0 0 0 0 0 0 0 0 0 0 0 0 0 0 0 0 0 0 0 0 0 0 0 0 0 0 0 0 0 0 0 0 0 0 0 0 0 0 0 0 0 0 0 0 0 0 0 0 0 0 0 0 0 0 0 0 0 0 0 0 0 0 0 0 0 0 0 0 0 0 0 0 0 0 0 0 0 0 0 0 0 0 0 0 0 0 0 0 0 0 0 0 0 0 0 0 0 0 0 0 0 0 0 0 0 0 0 0 0 0 0 0 0 0 0 0 0 0 0 0 0 0 0 0 0 0 0 0 0 0 0 0 0 0 0 0 0 0 0 0 0 0 0 0 0 0 0 0 0 0 0 0 0 0 0 0 0 0 0 0 0 0 0 0 0 0 0 0 0 0 0 0 0 0 0 0 0 0 0 0 0 0 0 0 0 0 0 0 0 0 0 0 0 0 0 0 0 0 0 0 0 0 0 0 0 0 0 0 0 0 0 0 0 0 0 0 0 0 0 0 0 0 0 0 0 0 0 0 0 0 0 0 0 0 0 0 0 0 0 0 0 0 0 0 0 0 0 0 0 0 0 0 0 0 0 0 0 0 0 0 0 0 0 0 0 0 0 0 0 0 0 0 0 0 0 0 0 0 0 0 0 0 0 0 0 0 0 0 0 0 0 0 0 0 0 0 0 0 0 0 0 0 0 0 0 0 0 0 0 0 0 0 0 0 0 0 0 0 0 0 0 0 0 0 0 0 0 0 0 0 0 0 0 0 0 0 0 0 0 0 0 0 0 0 0 0 0 0 0 0 0 0 0 0 0 0 0 0 0 0 0 0 0 0 0 0 0 0 0 0 0 0 0 0 0 0 0 0 0 0 0 0 0 0 0 0 0 0 0 0 0 0 0 0 0 0 0 0 0 0 0 0 0 0 0 0 0 0 0 0 0 0 0 0 0 0 0 0 0 0 0 0 0 0 0 0 0 0 0 0 0 0 0 0 0 0 0 0 0 0 0 0 0 0 0 0 0 0 0 0 0 0 0 0 0 0 0 0 0 0 0 0 0 0 0 0 0 0 0 0 0 0 0 0 0 0 0 0 0 0 0 0 0 0 0 0 0 0 0 0 0 0 0 0 0 0 0 0 0 0 0 0 0 0 0 0 0 0 0 0 0 0 0 0 0 0 0 0 0 0 0 0 0 0 0 0 0 0 0 0 0 0 0 0 0 0 0 0 0 0 0 0 0 0 0 0 0 0 0 0 0 0 0 0 0 0 0 0 0 0 0 0 0 0 0 0 0 0 0 0 0 0 0 0 0 0 0 0 0 0 0 0 0 0 0 0 0 0 0 0 0 0 0 0 0 0 0 0 0 0 0 0 0 0 0 0 0 0 0 0 0 0 0 0 0 0 0 0 0 0 0 0 0 0 0 0 0 0 0 0 0 0 0 0 0 0 0 0 0 0 0 0 0 0 0 0 0 0 0 0 0 0 0 0 0 0 0 0 0 0 0 0 0 0 0 0 0 0 0 0 0 0 0 0 0 0 0 0 0 0 0 0 0 0 0 0 0 0 0 0 0 0 0 0 0 0 0 0 0 0 0 0 0 0 0 0 0 0 0 0 0 0 0 0 0 0 0 0 0 0 0 0 0 0 0 0 0 0 0 0 0 0 0 0 0 0 0 0 0 0 0 0 0 0 0 0 0 0 0 0 0 0 0 0 0 0 0 0 0 0 0 0 0 0 0 0 0 0 0 0 0 0 0 0 0 0 0 0 0 0 0 0 0 0 0 0 0 0 0 0 0 0 0 0 0 0 0 0 0 0 0 0 0 0 0 0 0 0 0 0 0 0 0 0 0 0 0 0 0 0 0 0 0 0 0 0 0 0 0 0 0 0 0 0 0 0 0 0 0 0 0 0 0 0 0 0 0 0 0 0 0 0 0 0 0 0 0 0 0 0 0 0 0 0 0 0 0 0 0 0 0 0 0 0 0 0 0 0 0 0 0 0 0 0 0 0 0 0 0 0 0 0 0 0 0 0 0 0 0 0 0 0 0 0 0 0 0 0 0 0 0 0 0 0 0 0 0 0 0 0 0 0 0 0 0 0 0 0 0 0 0 0 0 0 0 0 0 0 0 0 0 0 0 0 0 0 ];
Traffic[0]class1Average hops = 1 (844525 samples)
traffic_manager/hop_stats_freq = [ 0 844525 0 0 0 0 0 0 0 0 0 0 0 0 0 0 0 0 0 0 ];
=======Traffic[1]class0 ======
Traffic[1]class0Overall average latency = 6.8381 (1 samples)
Traffic[1]class0Overall average accepted rate = 0.00499273 (1 samples)
Traffic[1]class0Overall min accepted rate = 0 (1 samples)
traffic_manager/latency_stat_0_freq = [ 0 10323 190 541 135 393166 8518 11484 342891 19688 7010 6438 15936 7334 13787 814 3170 703 697 473 274 348 239 59 94 35 88 23 15 7 5 22 7 2 3 0 4 0 1 0 0 1 0 0 0 0 0 0 0 0 0 0 0 0 0 0 0 0 0 0 0 0 0 0 0 0 0 0 0 0 0 0 0 0 0 0 0 0 0 0 0 0 0 0 0 0 0 0 0 0 0 0 0 0 0 0 0 0 0 0 0 0 0 0 0 0 0 0 0 0 0 0 0 0 0 0 0 0 0 0 0 0 0 0 0 0 0 0 0 0 0 0 0 0 0 0 0 0 0 0 0 0 0 0 0 0 0 0 0 0 0 0 0 0 0 0 0 0 0 0 0 0 0 0 0 0 0 0 0 0 0 0 0 0 0 0 0 0 0 0 0 0 0 0 0 0 0 0 0 0 0 0 0 0 0 0 0 0 0 0 0 0 0 0 0 0 0 0 0 0 0 0 0 0 0 0 0 0 0 0 0 0 0 0 0 0 0 0 0 0 0 0 0 0 0 0 0 0 0 0 0 0 0 0 0 0 0 0 0 0 0 0 0 0 0 0 0 0 0 0 0 0 0 0 0 0 0 0 0 0 0 0 0 0 0 0 0 0 0 0 0 0 0 0 0 0 0 0 0 0 0 0 0 0 0 0 0 0 0 0 0 0 0 0 0 0 0 0 0 0 0 0 0 0 0 0 0 0 0 0 0 0 0 0 0 0 0 0 0 0 0 0 0 0 0 0 0 0 0 0 0 0 0 0 0 0 0 0 0 0 0 0 0 0 0 0 0 0 0 0 0 0 0 0 0 0 0 0 0 0 0 0 0 0 0 0 0 0 0 0 0 0 0 0 0 0 0 0 0 0 0 0 0 0 0 0 0 0 0 0 0 0 0 0 0 0 0 0 0 0 0 0 0 0 0 0 0 0 0 0 0 0 0 0 0 0 0 0 0 0 0 0 0 0 0 0 0 0 0 0 0 0 0 0 0 0 0 0 0 0 0 0 0 0 0 0 0 0 0 0 0 0 0 0 0 0 0 0 0 0 0 0 0 0 0 0 0 0 0 0 0 0 0 0 0 0 0 0 0 0 0 0 0 0 0 0 0 0 0 0 0 0 0 0 0 0 0 0 0 0 0 0 0 0 0 0 0 0 0 0 0 0 0 0 0 0 0 0 0 0 0 0 0 0 0 0 0 0 0 0 0 0 0 0 0 0 0 0 0 0 0 0 0 0 0 0 0 0 0 0 0 0 0 0 0 0 0 0 0 0 0 0 0 0 0 0 0 0 0 0 0 0 0 0 0 0 0 0 0 0 0 0 0 0 0 0 0 0 0 0 0 0 0 0 0 0 0 0 0 0 0 0 0 0 0 0 0 0 0 0 0 0 0 0 0 0 0 0 0 0 0 0 0 0 0 0 0 0 0 0 0 0 0 0 0 0 0 0 0 0 0 0 0 0 0 0 0 0 0 0 0 0 0 0 0 0 0 0 0 0 0 0 0 0 0 0 0 0 0 0 0 0 0 0 0 0 0 0 0 0 0 0 0 0 0 0 0 0 0 0 0 0 0 0 0 0 0 0 0 0 0 0 0 0 0 0 0 0 0 0 0 0 0 0 0 0 0 0 0 0 0 0 0 0 0 0 0 0 0 0 0 0 0 0 0 0 0 0 0 0 0 0 0 0 0 0 0 0 0 0 0 0 0 0 0 0 0 0 0 0 0 0 0 0 0 0 0 0 0 0 0 0 0 0 0 0 0 0 0 0 0 0 0 0 0 0 0 0 0 0 0 0 0 0 0 0 0 0 0 0 0 0 0 0 0 0 0 0 0 0 0 0 0 0 0 0 0 0 0 0 0 0 0 0 0 0 0 0 0 0 0 0 0 0 0 0 0 0 0 0 0 0 0 0 0 0 0 0 0 0 0 0 0 0 0 0 0 0 0 0 0 0 0 0 0 0 0 0 0 0 0 0 0 0 0 0 0 0 0 0 0 0 0 0 0 0 0 0 0 0 0 0 0 0 0 0 0 0 0 0 0 0 0 0 0 0 0 0 0 0 0 0 0 0 0 0 0 0 0 0 0 0 0 0 0 0 0 0 0 0 0 0 0 0 0 0 0 0 0 0 0 0 0 0 0 0 0 0 0 0 0 0 0 0 0 0 0 0 0 0 0 0 0 0 0 0 0 0 0 0 0 0 0 0 0 0 0 0 0 0 0 0 0 0 0 0 0 0 0 0 ];
Traffic[1]class1Average hops = 1 (844525 samples)
traffic_manager/hop_stats_freq = [ 0 844525 0 0 0 0 0 0 0 0 0 0 0 0 0 0 0 0 0 0 ];
----------------------------END-of-Interconnect-DETAILS-------------------------

gpgpu_simulation_time = 0 days, 5 hrs, 23 min, 19 sec (19399 sec)
gpgpu_simulation_rate = 624431 (inst/sec)
gpgpu_simulation_rate = 937 (cycle/sec)
  computing plane 1
kernel '_Z29cuda_cutoff_potential_latticeiiP6float4fffPfi' transfer to GPU hardware scheduler
kernel_name = _Z29cuda_cutoff_potential_latticeiiP6float4fffPfi 
kernel_launch_uid = 2 
gpu_sim_cycle = 22213462
gpu_sim_insn = 14760151048
gpu_ipc =     664.4688
gpu_tot_sim_cycle = 40402996
gpu_tot_sim_insn = 26873499904
gpu_tot_ipc =     665.1363
gpu_tot_issued_cta = 0
gpu_stall_dramfull = 8852
gpu_stall_icnt2sh    = 85207
gpu_total_sim_rate=618848
Cache L1D_000:	Size = 16384 B (32 Set x 4-way x 128 byte line)
		Access = 257950, Miss = 120814 (0.468), PendingHit = 309 (0.0012)
Cache L1D_001:	Size = 16384 B (32 Set x 4-way x 128 byte line)
		Access = 257950, Miss = 118838 (0.461), PendingHit = 425 (0.00165)
Cache L1D_002:	Size = 16384 B (32 Set x 4-way x 128 byte line)
		Access = 257950, Miss = 113747 (0.441), PendingHit = 1239 (0.0048)
Cache L1D_003:	Size = 16384 B (32 Set x 4-way x 128 byte line)
		Access = 259290, Miss = 116573 (0.45), PendingHit = 632 (0.00244)
Cache L1D_004:	Size = 16384 B (32 Set x 4-way x 128 byte line)
		Access = 259960, Miss = 120994 (0.465), PendingHit = 995 (0.00383)
Cache L1D_005:	Size = 16384 B (32 Set x 4-way x 128 byte line)
		Access = 259960, Miss = 115927 (0.446), PendingHit = 1290 (0.00496)
Cache L1D_006:	Size = 16384 B (32 Set x 4-way x 128 byte line)
		Access = 259960, Miss = 119034 (0.458), PendingHit = 333 (0.00128)
Cache L1D_007:	Size = 16384 B (32 Set x 4-way x 128 byte line)
		Access = 258620, Miss = 117858 (0.456), PendingHit = 553 (0.00214)
Cache L1D_008:	Size = 16384 B (32 Set x 4-way x 128 byte line)
		Access = 257950, Miss = 118469 (0.459), PendingHit = 601 (0.00233)
Cache L1D_009:	Size = 16384 B (32 Set x 4-way x 128 byte line)
		Access = 257950, Miss = 120263 (0.466), PendingHit = 730 (0.00283)
Cache L1D_010:	Size = 16384 B (32 Set x 4-way x 128 byte line)
		Access = 259960, Miss = 118498 (0.456), PendingHit = 884 (0.0034)
Cache L1D_011:	Size = 16384 B (32 Set x 4-way x 128 byte line)
		Access = 258620, Miss = 120559 (0.466), PendingHit = 715 (0.00276)
Cache L1D_012:	Size = 16384 B (32 Set x 4-way x 128 byte line)
		Access = 259290, Miss = 120337 (0.464), PendingHit = 181 (0.000698)
Cache L1D_013:	Size = 16384 B (32 Set x 4-way x 128 byte line)
		Access = 257950, Miss = 115023 (0.446), PendingHit = 843 (0.00327)
total_dl1_misses=1656934
total_dl1_accesses=3623360
total_dl1_miss_rate= 0.457292
Shader 0 dynamic_warp_id issue ditsribution:
dynamic_warp_id:
0, 1, 2, 3, 4, 5, 6, 7, 8, 9, 10, 11, 12, 13, 14, 15, 16, 17, 18, 19, 20, 21, 22, 23, 24, 25, 26, 27, 28, 29, 30, 31, 32, 33, 34, 35, 36, 37, 38, 39, 40, 41, 42, 43, 44, 45, 46, 47, 48, 49, 50, 51, 52, 53, 54, 55, 56, 57, 58, 59, 60, 61, 62, 63, 64, 65, 66, 67, 68, 69, 70, 71, 72, 73, 74, 75, 76, 77, 78, 79, 80, 81, 82, 83, 84, 85, 86, 87, 88, 89, 90, 91, 92, 93, 94, 95, 96, 97, 98, 99, 100, 101, 102, 103, 104, 105, 106, 107, 108, 109, 110, 111, 112, 113, 114, 115, 116, 117, 118, 119, 120, 121, 122, 123, 124, 125, 126, 127, 128, 129, 130, 131, 132, 133, 134, 135, 136, 137, 138, 139, 140, 141, 142, 143, 144, 145, 146, 147, 148, 149, 150, 151, 152, 153, 154, 155, 156, 157, 158, 159, 160, 161, 162, 163, 164, 165, 166, 167, 168, 169, 170, 171, 172, 173, 174, 175, 176, 177, 178, 179, 180, 181, 182, 183, 184, 185, 186, 187, 188, 189, 190, 191, 192, 193, 194, 195, 196, 197, 198, 199, 200, 201, 202, 203, 204, 205, 206, 207, 208, 209, 210, 211, 212, 213, 214, 215, 216, 217, 218, 219, 220, 221, 222, 223, 224, 225, 226, 227, 228, 229, 230, 231, 232, 233, 234, 235, 236, 237, 238, 239, 240, 241, 242, 243, 244, 245, 246, 247, 248, 249, 250, 251, 252, 253, 254, 255, 256, 257, 258, 259, 260, 261, 262, 263, 264, 265, 266, 267, 268, 269, 270, 271, 272, 273, 274, 275, 276, 277, 278, 279, 280, 281, 282, 283, 284, 285, 286, 287, 288, 289, 290, 291, 292, 293, 294, 295, 296, 297, 298, 299, 300, 301, 302, 303, 304, 305, 306, 307, 308, 309, 310, 311, 312, 313, 314, 315, 316, 317, 318, 319, 320, 321, 322, 323, 324, 325, 326, 327, 328, 329, 330, 331, 332, 333, 334, 335, 336, 337, 338, 339, 340, 341, 342, 343, 344, 345, 346, 347, 348, 349, 350, 351, 352, 353, 354, 355, 356, 357, 358, 359, 360, 361, 362, 363, 364, 365, 366, 367, 368, 369, 370, 371, 372, 373, 374, 375, 376, 377, 378, 379, 380, 381, 382, 383, 384, 385, 386, 387, 388, 389, 390, 391, 392, 393, 394, 395, 396, 397, 398, 399, 400, 401, 402, 403, 404, 405, 406, 407, 408, 409, 410, 411, 412, 413, 414, 415, 416, 417, 418, 419, 420, 421, 422, 423, 424, 425, 426, 427, 428, 429, 430, 431, 432, 433, 434, 435, 436, 437, 438, 439, 440, 441, 442, 443, 444, 445, 446, 447, 448, 449, 450, 451, 452, 453, 454, 455, 456, 457, 458, 459, 460, 461, 462, 463, 464, 465, 466, 467, 468, 469, 470, 471, 472, 473, 474, 475, 476, 477, 478, 479, 480, 481, 482, 483, 484, 485, 486, 487, 488, 489, 490, 491, 492, 493, 494, 495, 496, 497, 498, 499, 500, 501, 502, 503, 504, 505, 506, 507, 508, 509, 510, 511, 512, 513, 514, 515, 516, 517, 518, 519, 520, 521, 522, 523, 524, 525, 526, 527, 528, 529, 530, 531, 532, 533, 534, 535, 536, 537, 538, 539, 540, 541, 542, 543, 544, 545, 546, 547, 548, 549, 550, 551, 552, 553, 554, 555, 556, 557, 558, 559, 560, 561, 562, 563, 564, 565, 566, 567, 568, 569, 570, 571, 572, 573, 574, 575, 576, 577, 578, 579, 580, 581, 582, 583, 584, 585, 586, 587, 588, 589, 590, 591, 592, 593, 594, 595, 596, 597, 598, 599, 600, 601, 602, 603, 604, 605, 606, 607, 608, 609, 610, 611, 612, 613, 614, 615, 616, 617, 618, 619, 620, 621, 622, 623, 624, 625, 626, 627, 628, 629, 630, 631, 632, 633, 634, 635, 636, 637, 638, 639, 640, 641, 642, 643, 644, 645, 646, 647, 648, 649, 650, 651, 652, 653, 654, 655, 656, 657, 658, 659, 660, 661, 662, 663, 664, 665, 666, 667, 668, 669, 670, 671, 672, 673, 674, 675, 676, 677, 678, 679, 680, 681, 682, 683, 684, 685, 686, 687, 688, 689, 690, 691, 692, 693, 694, 695, 696, 697, 698, 699, 700, 701, 702, 703, 704, 705, 706, 707, 708, 709, 710, 711, 712, 713, 714, 715, 716, 717, 718, 719, 720, 721, 722, 723, 724, 725, 726, 727, 728, 729, 730, 731, 732, 733, 734, 735, 736, 737, 738, 739, 740, 741, 742, 743, 744, 745, 746, 747, 748, 749, 750, 751, 752, 753, 754, 755, 756, 757, 758, 759, 760, 761, 762, 763, 764, 765, 766, 767, 768, 769, 770, 771, 772, 773, 774, 775, 776, 777, 778, 779, 780, 781, 782, 783, 784, 785, 786, 787, 788, 789, 790, 791, 792, 793, 794, 795, 796, 797, 798, 799, 800, 801, 802, 803, 804, 805, 806, 807, 808, 809, 810, 811, 812, 813, 814, 815, 816, 817, 818, 819, 820, 821, 822, 823, 824, 825, 826, 827, 828, 829, 830, 831, 832, 833, 834, 835, 836, 837, 838, 839, 840, 841, 842, 843, 844, 845, 846, 847, 848, 849, 850, 851, 852, 853, 854, 855, 856, 857, 858, 859, 860, 861, 862, 863, 864, 865, 866, 867, 868, 869, 870, 871, 872, 873, 874, 875, 876, 877, 878, 879, 880, 881, 882, 883, 884, 885, 886, 887, 888, 889, 890, 891, 892, 893, 894, 895, 896, 897, 898, 899, 900, 901, 902, 903, 904, 905, 906, 907, 908, 909, 910, 911, 912, 913, 914, 915, 916, 917, 918, 919, 920, 921, 922, 923, 924, 925, 926, 927, 928, 929, 930, 931, 932, 933, 934, 935, 936, 937, 938, 939, 940, 941, 942, 943, 944, 945, 946, 947, 948, 949, 950, 951, 952, 953, 954, 955, 956, 957, 958, 959, 960, 961, 962, 963, 964, 965, 966, 967, 968, 969, 970, 971, 972, 973, 974, 975, 976, 977, 978, 979, 980, 981, 982, 983, 984, 985, 986, 987, 988, 989, 990, 991, 992, 993, 994, 995, 996, 997, 998, 999, 1000, 1001, 1002, 1003, 1004, 1005, 1006, 1007, 1008, 1009, 1010, 1011, 1012, 1013, 1014, 1015, 1016, 1017, 1018, 1019, 1020, 1021, 1022, 1023, 1024, 1025, 1026, 1027, 1028, 1029, 1030, 1031, 1032, 1033, 1034, 1035, 1036, 1037, 1038, 1039, 1040, 1041, 1042, 1043, 1044, 1045, 1046, 1047, 1048, 1049, 1050, 1051, 1052, 1053, 1054, 1055, 1056, 1057, 1058, 1059, 1060, 1061, 1062, 1063, 1064, 1065, 1066, 1067, 1068, 1069, 1070, 1071, 1072, 1073, 1074, 1075, 1076, 1077, 1078, 1079, 1080, 1081, 1082, 1083, 1084, 1085, 1086, 1087, 1088, 1089, 1090, 1091, 1092, 1093, 1094, 1095, 1096, 1097, 1098, 1099, 1100, 1101, 1102, 1103, 1104, 1105, 1106, 1107, 1108, 1109, 1110, 1111, 1112, 1113, 1114, 1115, 1116, 1117, 1118, 1119, 1120, 1121, 1122, 1123, 1124, 1125, 1126, 1127, 1128, 1129, 1130, 1131, 1132, 1133, 1134, 1135, 1136, 1137, 1138, 1139, 1140, 1141, 1142, 1143, 1144, 1145, 1146, 1147, 1148, 1149, 1150, 1151, 1152, 1153, 1154, 1155, 1156, 1157, 1158, 1159, 1160, 1161, 1162, 1163, 1164, 1165, 1166, 1167, 1168, 1169, 1170, 1171, 1172, 1173, 1174, 1175, 1176, 1177, 1178, 1179, 1180, 1181, 1182, 1183, 1184, 1185, 1186, 1187, 1188, 1189, 1190, 1191, 1192, 1193, 1194, 1195, 1196, 1197, 1198, 1199, 1200, 1201, 1202, 1203, 1204, 1205, 1206, 1207, 1208, 1209, 1210, 1211, 1212, 1213, 1214, 1215, 1216, 1217, 1218, 1219, 1220, 1221, 1222, 1223, 1224, 1225, 1226, 1227, 1228, 1229, 1230, 1231, 1232, 1233, 1234, 1235, 1236, 1237, 1238, 1239, 1240, 1241, 1242, 1243, 1244, 1245, 1246, 1247, 1248, 1249, 1250, 1251, 1252, 1253, 1254, 1255, 1256, 1257, 1258, 1259, 1260, 1261, 1262, 1263, 1264, 1265, 1266, 1267, 1268, 1269, 1270, 1271, 1272, 1273, 1274, 1275, 1276, 1277, 1278, 1279, 1280, 1281, 1282, 1283, 1284, 1285, 1286, 1287, 1288, 1289, 1290, 1291, 1292, 1293, 1294, 1295, 1296, 1297, 1298, 1299, 1300, 1301, 1302, 1303, 1304, 1305, 1306, 1307, 1308, 1309, 1310, 1311, 1312, 1313, 1314, 1315, 1316, 1317, 1318, 1319, 1320, 1321, 1322, 1323, 1324, 1325, 1326, 1327, 1328, 1329, 1330, 1331, 1332, 1333, 1334, 1335, 1336, 1337, 1338, 1339, 1340, 1341, 1342, 1343, 1344, 1345, 1346, 1347, 1348, 1349, 1350, 1351, 1352, 1353, 1354, 1355, 1356, 1357, 1358, 1359, 1360, 1361, 1362, 1363, 1364, 1365, 1366, 1367, 1368, 1369, 1370, 1371, 1372, 1373, 1374, 1375, 1376, 1377, 1378, 1379, 1380, 1381, 1382, 1383, 1384, 1385, 1386, 1387, 1388, 1389, 1390, 1391, 1392, 1393, 1394, 1395, 1396, 1397, 1398, 1399, 1400, 1401, 1402, 1403, 1404, 1405, 1406, 1407, 1408, 1409, 1410, 1411, 1412, 1413, 1414, 1415, 1416, 1417, 1418, 1419, 1420, 1421, 1422, 1423, 1424, 1425, 1426, 1427, 1428, 1429, 1430, 1431, 1432, 1433, 1434, 1435, 1436, 1437, 1438, 1439, 1440, 1441, 1442, 1443, 1444, 1445, 1446, 1447, 1448, 1449, 1450, 1451, 1452, 1453, 1454, 1455, 1456, 1457, 1458, 1459, 1460, 1461, 1462, 1463, 1464, 1465, 1466, 1467, 1468, 1469, 1470, 1471, 1472, 1473, 1474, 1475, 1476, 1477, 1478, 1479, 1480, 1481, 1482, 1483, 1484, 1485, 1486, 1487, 1488, 1489, 1490, 1491, 1492, 1493, 1494, 1495, 1496, 1497, 1498, 1499, 1500, 1501, 1502, 1503, 1504, 1505, 1506, 1507, 1508, 1509, 1510, 1511, 1512, 1513, 1514, 1515, 1516, 1517, 1518, 1519, 1520, 1521, 1522, 1523, 1524, 1525, 1526, 1527, 1528, 1529, 1530, 1531, 1532, 1533, 1534, 1535, 1536, 1537, 1538, 1539, 
distro:
26494, 27007, 26647, 27232, 27377, 27926, 27521, 28133, 26045, 26432, 26108, 26594, 26588, 27182, 26687, 27281, 27194, 27725, 27374, 27878, 27349, 27997, 27475, 28069, 15458, 15674, 15512, 15755, 31046, 31478, 31208, 31640, 31901, 32243, 32072, 32423, 32558, 32990, 32711, 33170, 31904, 32363, 32075, 32543, 32919, 33297, 33126, 33504, 32591, 33068, 32735, 33266, 21667, 21910, 21748, 22027, 23674, 23863, 23827, 23944, 28078, 28276, 28267, 28465, 37795, 38119, 38110, 38398, 37649, 38234, 37937, 38531, 38069, 38600, 38294, 38825, 37950, 38265, 38166, 38508, 36472, 36760, 36670, 37012, 33077, 33401, 33266, 33599, 41688, 41823, 42003, 42030, 42698, 42743, 42950, 42968, 43232, 43286, 43448, 43511, 43119, 43272, 43335, 43497, 41909, 41918, 42197, 42197, 43114, 43114, 43357, 43294, 22156, 22174, 22255, 22264, 27119, 27254, 27299, 27353, 42959, 43085, 43292, 43292, 43411, 43420, 43744, 43618, 43029, 43236, 43281, 43515, 43197, 43242, 43476, 43539, 42604, 42505, 42757, 42811, 43246, 43228, 43399, 43489, 22594, 22648, 22756, 22783, 32360, 32432, 32540, 32621, 43016, 43007, 43268, 43295, 43181, 43289, 43451, 43523, 44313, 44295, 44520, 44592, 44201, 44156, 44435, 44390, 44056, 44191, 44362, 44335, 38644, 38716, 38932, 38977, 32017, 32008, 32233, 32170, 38395, 38368, 38575, 38602, 42912, 42948, 43191, 43164, 45107, 45008, 45305, 45224, 43665, 43782, 43971, 44016, 42679, 42679, 42904, 42931, 38471, 38516, 38696, 38759, 34049, 34166, 34346, 34301, 37766, 37811, 37991, 38081, 44371, 44272, 44641, 44524, 44242, 44278, 44521, 44485, 43029, 42948, 43299, 43164, 42470, 42506, 42749, 42722, 43269, 43125, 43494, 43323, 33467, 33458, 33611, 33656, 32853, 32727, 33006, 32880, 43782, 43701, 44088, 44007, 42468, 42423, 42765, 42657, 43428, 43347, 43716, 43599, 42719, 42746, 43016, 42989, 43824, 43851, 44067, 44103, 39350, 39476, 39548, 39737, 26683, 26719, 26854, 26809, 42816, 42789, 43095, 43068, 43191, 43344, 43407, 43551, 44069, 44060, 44276, 44258, 43430, 43394, 43655, 43700, 44120, 44102, 44354, 44354, 43668, 43650, 43893, 43830, 28844, 28880, 29015, 29006, 37932, 37833, 38085, 38094, 42777, 42840, 43065, 43056, 42586, 42577, 42901, 42847, 43721, 43712, 44045, 43991, 42902, 42911, 43118, 43172, 43465, 43501, 43663, 43807, 33714, 33723, 33921, 33939, 27501, 27537, 27627, 27681, 42987, 43014, 43338, 43275, 44191, 44209, 44452, 44416, 42991, 43036, 43252, 43378, 42984, 43047, 43245, 43191, 43510, 43591, 43798, 43780, 44224, 44341, 44566, 44593, 23093, 23048, 23237, 23183, 41914, 41797, 42139, 42076, 42502, 42610, 42790, 42844, 44041, 43969, 44266, 44221, 42459, 42351, 42639, 42612, 43296, 43341, 43521, 43620, 43609, 43510, 43843, 43798, 27825, 27888, 27987, 28023, 37350, 37305, 37557, 37548, 42900, 42891, 43161, 43125, 41498, 41534, 41750, 41723, 42305, 42134, 42584, 42539, 41760, 41859, 42003, 42093, 42745, 42655, 42988, 42916, 33046, 33046, 33244, 33298, 28166, 28211, 28310, 28355, 43034, 43097, 43304, 43313, 43840, 43840, 44110, 44065, 41656, 41611, 41917, 41890, 42667, 42676, 42892, 42901, 43080, 43008, 43323, 43359, 44070, 44034, 44313, 44250, 28654, 28600, 28807, 28735, 37863, 37899, 38169, 38124, 43159, 43249, 43402, 43411, 41683, 41674, 41953, 41845, 42111, 42102, 42408, 42345, 42410, 42338, 42671, 42563, 43731, 43641, 44046, 43893, 33024, 33141, 33204, 33339, 28397, 28451, 28505, 28559, 43769, 43742, 44039, 44057, 42292, 42328, 42490, 42517, 42952, 42817, 43132, 43123, 42905, 42887, 43103, 43157, 42703, 42712, 42937, 43018, 43402, 43411, 43600, 43582, 23075, 23093, 23174, 23183, 37406, 37343, 37613, 37604, 42953, 42836, 43232, 43106, 43395, 43413, 43674, 43683, 42291, 42390, 42552, 42579, 42312, 42402, 42600, 42681, 42261, 42252, 42558, 42387, 32706, 32724, 32949, 32850, 22441, 22432, 22567, 22558, 42479, 42317, 42668, 42560, 42337, 42301, 42589, 42580, 42142, 42124, 42466, 42403, 42817, 42754, 43060, 42970, 42569, 42587, 42758, 42785, 42521, 42665, 42701, 42863, 28610, 28601, 28736, 28727, 32122, 32122, 32329, 32392, 37417, 37345, 37570, 37561, 41982, 42135, 42252, 42306, 43940, 43958, 44228, 44219, 43995, 44130, 44238, 44391, 41908, 41980, 42214, 42160, 38260, 38314, 38539, 38593, 33778, 33751, 34030, 33922, 42405, 42378, 42612, 42648, 44251, 44305, 44566, 44548, 43490, 43526, 43805, 43814, 43029, 43011, 43200, 43299, 42431, 42359, 42656, 42611, 42616, 42589, 42904, 42904, 28006, 27943, 28168, 28159, 37504, 37567, 37711, 37774, 42699, 42600, 42888, 42843, 43385, 43385, 43682, 43583, 43054, 43063, 43261, 43270, 43062, 43044, 43431, 43269, 43883, 43865, 44189, 44063, 32815, 32941, 33049, 33067, 22460, 22505, 22622, 22685, 37909, 37792, 38143, 37972, 39150, 38943, 39438, 39195, 38922, 38688, 39156, 38958, 39350, 39188, 39593, 39413, 40530, 40224, 40701, 40386, 40252, 39964, 40441, 40279, 20926, 20836, 21034, 20908, 30252, 29982, 30369, 30063, 33117, 32820, 33297, 33000, 34365, 34032, 34626, 34257, 34730, 34424, 34964, 34613, 34918, 34549, 35116, 34729, 33846, 33513, 34008, 33702, 27145, 26785, 27379, 26947, 23453, 23093, 23534, 23219, 25471, 25075, 25624, 25210, 29305, 28792, 29386, 28891, 29418, 28887, 29589, 29067, 30245, 29660, 30371, 29804, 28789, 28285, 29041, 28510, 29351, 28838, 29504, 28973, 23611, 23134, 23773, 23242, 23735, 23222, 23843, 23330, 23628, 23160, 23772, 23250, 23809, 23278, 23953, 23350, 24331, 23737, 24421, 23845, 24077, 23564, 24194, 23672, 22922, 22517, 23093, 22625, 24846, 25395, 24927, 25458, 31306, 31945, 31432, 32044, 31926, 32610, 32007, 32682, 31576, 32260, 31684, 32359, 31553, 32156, 31625, 32264, 32489, 33254, 32642, 33317, 28455, 29040, 28518, 29157, 21606, 22074, 21669, 22092, 38399, 38948, 38489, 39101, 39506, 40127, 39587, 40280, 38608, 39247, 38698, 39427, 39150, 39798, 39312, 39942, 38879, 39374, 38987, 39572, 39041, 39743, 39221, 39905, 20702, 20936, 20765, 20990, 45094, 45463, 45319, 45670, 44644, 44977, 44869, 45202, 45081, 45603, 45243, 45729, 45095, 45554, 45293, 45707, 45482, 45959, 45617, 46157, 46045, 46504, 46207, 46738, 29210, 29534, 29363, 29624, 29795, 30083, 29822, 30155, 31486, 31657, 31576, 31747, 51618, 51708, 51771, 51888, 52165, 52147, 52372, 52408, 51820, 51694, 52045, 52000, 52298, 52190, 52460, 52370, 51973, 52054, 52117, 52144, 51008, 51224, 51188, 51485, 52352, 52289, 52505, 52505, 53410, 53617, 53590, 53851, 53646, 53619, 53835, 53799, 53002, 52984, 53254, 53227, 53664, 53763, 53871, 53979, 53836, 54016, 54034, 54286, 34063, 33964, 34261, 34126, 27163, 27100, 27253, 27208, 39491, 39635, 39698, 39770, 54300, 54345, 54561, 54570, 53980, 53980, 54187, 54241, 53205, 53151, 53385, 53403, 53416, 53434, 53740, 53677, 52917, 52890, 53196, 52998, 47341, 47368, 47593, 47539, 46436, 46499, 46688, 46661, 54276, 54159, 54465, 54357, 55003, 55003, 55228, 55219, 53568, 53433, 53757, 53703, 53593, 53521, 53926, 53800, 53815, 53869, 54121, 54058, 41249, 41123, 41375, 41348, 27540, 27594, 27612, 27666, 52192, 52210, 52381, 52489, 54564, 54564, 54726, 54726, 52946, 52901, 53099, 53099, 53198, 53207, 53387, 53423, 52583, 52718, 52754, 52952, 52520, 52538, 52664, 52817, 34346, 34283, 34508, 34499, 47078, 46997, 47231, 47168, 52074, 52299, 52371, 52533, 53302, 53347, 53500, 53464, 53485, 53386, 53719, 53602, 54214, 54259, 54394, 54421, 52361, 52343, 52658, 52640, 41615, 41579, 41732, 41705, 34127, 34136, 34298, 34298, 53370, 53199, 53577, 53433, 52923, 52977, 53121, 53220, 53364, 53382, 53571, 53589, 53536, 53518, 53689, 53698, 52772, 52988, 53060, 53222, 53825, 53807, 53942, 53987, 35126, 35045, 35225, 35081, 53767, 53659, 53929, 53866, 54577, 54505, 54712, 54631, 53365, 53509, 53617, 53698, 53874, 53802, 54117, 54072, 53465, 53501, 53618, 53717, 54468, 54639, 54738, 54711, 27029, 27128, 27047, 27218, 32399, 32462, 32570, 32552, 54924, 54969, 55131, 55176, 53168, 53150, 53456, 53375, 53236, 53281, 53506, 53524, 53831, 53849, 54074, 54020, 54155, 54191, 54362, 54416, 53104, 53140, 53365, 53365, 39149, 39140, 39293, 39311, 52179, 52197, 52377, 52431, 54150, 54123, 54285, 54348, 53197, 53098, 53377, 53413, 52590, 52563, 52743, 52788, 52340, 52259, 52592, 52493, 47669, 47669, 47867, 47903, 34543, 34588, 34660, 34714, 33138, 33210, 33282, 33300, 54283, 54319, 54517, 54553, 51942, 51942, 52257, 52140, 52133, 52070, 52367, 52205, 52936, 52972, 53179, 53188, 53178, 53124, 53403, 53268, 52671, 52761, 52959, 52932, 40984, 41002, 41083, 41128, 54253, 54181, 54460, 54397, 54969, 54879, 55140, 55068, 51718, 51700, 51916, 51862, 53046, 53073, 53271, 53199, 54337, 54184, 54481, 54409, 48730, 48649, 48919, 48874, 27565, 27493, 27592, 27583, 40443, 40443, 40596, 40623, 53881, 53917, 54151, 54142, 52871, 52934, 52979, 53141, 51134, 51107, 51332, 51404, 53783, 53747, 53945, 54017, 52720, 52801, 53044, 52972, 47581, 47527, 47779, 47689, 52590, 52671, 52797, 52860, 53051, 52943, 53267, 53132, 54087, 54087, 54285, 54267, 52386, 52431, 52548, 52530, 52094, 52202, 52436, 52517, 54166, 54229, 54427, 54445, 33852, 33816, 33978, 33951, 26985, 26985, 27066, 27084, 51806, 51752, 51977, 51959, 53486, 53504, 53729, 53738, 52643, 52733, 53003, 52949, 51976, 51877, 52156, 52138, 52700, 52754, 52934, 53024, 52904, 52841, 53111, 53003, 33755, 33755, 33908, 33845, 45569, 45659, 45839, 45884, 52523, 52460, 52766, 52757, 53142, 53232, 53421, 53448, 53450, 53675, 53765, 53891, 53037, 53037, 53280, 53235, 53219, 53048, 53417, 53318, 41011, 40993, 41155, 41182, 27117, 27144, 27198, 27243, 52511, 52673, 52709, 52799, 52877, 52823, 53030, 53003, 52926, 53187, 53250, 53376, 54128, 54047, 54272, 54236, 53244, 53136, 53433, 53388, 53871, 53781, 54006, 53988, 31950, 31968, 32103, 32067, 45949, 45940, 46174, 46120, 53113, 53005, 53257, 53320, 52899, 52989, 53151, 53232, 54412, 54538, 54538, 54664, 53311, 53239, 53545, 53518, 53588, 53615, 53795, 53885, 41340, 41448, 41502, 41610, 26871, 26925, 27015, 27051, 52931, 53048, 53075, 53192, 54269, 54269, 54458, 54503, 53697, 53661, 53931, 53859, 53106, 53196, 53304, 53331, 53431, 53485, 53683, 53764, 53895, 54012, 54192, 54120, 29070, 29007, 29205, 29097, 41943, 41601, 42159, 41763, 48091, 47893, 48397, 48055, 49303, 48898, 49519, 49132, 48803, 48488, 49028, 48677, 48335, 47921, 48515, 48218, 47400, 47319, 47580, 47472, 37772, 37439, 38015, 37664, 24908, 24809, 25016, 24908, 40972, 40369, 41071, 40504, 42604, 42064, 42856, 42199, 42156, 41598, 42408, 41841, 42275, 41861, 42500, 41933, 41627, 41267, 41780, 41393, 41905, 41491, 42175, 41698, 27853, 27448, 27898, 27493, 31142, 30467, 31250, 30539, 34370, 33821, 34469, 33902, 35451, 34929, 35595, 34974, 35326, 34651, 35497, 34786, 35353, 34651, 35506, 34777, 35485, 34747, 35602, 34891, 28111, 27544, 28174, 27625, 19688, 19355, 19733, 19409, 28064, 27533, 28163, 27569, 27723, 27156, 27777, 27201, 28455, 27762, 28509, 27852, 28769, 28022, 28796, 28049, 27953, 27305, 28061, 27359, 27870, 27114, 27987, 27231, 
gpgpu_n_tot_thrd_icount = 28723572160
gpgpu_n_tot_w_icount = 897611630
gpgpu_n_icache_hits = 487237860
gpgpu_n_icache_misses = 2037
gpgpu_n_l1dcache_read_hits = 1956696
gpgpu_n_l1dcache_read_misses = 1666664
gpgpu_n_l1dcache_write_accesses = 21632
gpgpu_n_l1dcache_wirte_misses = 21632
gpgpu_n_tcache_hits = 0
gpgpu_n_tcache_misses = 0
gpgpu_n_ccache_hits = 40998940
gpgpu_n_ccache_misses = 3410
gpgpu_n_stall_shd_mem = 4180384
gpgpu_n_mem_read_local = 0
gpgpu_n_mem_write_local = 0
gpgpu_n_mem_read_global = 1656934
gpgpu_n_mem_write_global = 21632
gpgpu_n_mem_texture = 0
gpgpu_n_mem_const = 924
gpgpu_n_load_insn  = 115947520
gpgpu_n_store_insn = 1384448
gpgpu_n_shmem_insn = -159355968
gpgpu_n_tex_insn = 0
gpgpu_n_const_mem_insn = 175305728
gpgpu_n_param_mem_insn = -2053555264
gpgpu_n_shmem_bkconflict = 0
gpgpu_n_cache_bkconflict = 0
gpgpu_n_intrawarp_mshr_merge = 0
gpgpu_n_cmem_portconflict = 567840
gpgpu_stall_shd_mem[c_mem][bk_conf] = 567840
gpgpu_stall_shd_mem[c_mem][mshr_rc] = 0
gpgpu_stall_shd_mem[c_mem][icnt_rc] = 0
gpgpu_stall_shd_mem[t_mem][mshr_rc] = 0
gpgpu_stall_shd_mem[t_mem][icnt_rc] = 0
gpgpu_stall_shd_mem[s_mem][bk_conf] = 1806272
gpgpu_stall_shd_mem[gl_mem][bk_conf] = 0
gpgpu_stall_shd_mem[gl_mem][coal_stall] = 1806272
gpgpu_stall_shd_mem[g_mem_ld][mshr_rc] = 0
gpgpu_stall_shd_mem[g_mem_ld][icnt_rc] = 0
gpgpu_stall_shd_mem[g_mem_ld][wb_icnt_rc] = 0
gpgpu_stall_shd_mem[g_mem_ld][wb_rsrv_fail] = 0
gpgpu_stall_shd_mem[g_mem_st][mshr_rc] = 0
gpgpu_stall_shd_mem[g_mem_st][icnt_rc] = 0
gpgpu_stall_shd_mem[g_mem_st][wb_icnt_rc] = 0
gpgpu_stall_shd_mem[g_mem_st][wb_rsrv_fail] = 0
gpgpu_stall_shd_mem[l_mem_ld][mshr_rc] = 0
gpgpu_stall_shd_mem[l_mem_ld][icnt_rc] = 0
gpgpu_stall_shd_mem[l_mem_ld][wb_icnt_rc] = 0
gpgpu_stall_shd_mem[l_mem_ld][wb_rsrv_fail] = 0
gpgpu_stall_shd_mem[l_mem_st][mshr_rc] = 0
gpgpu_stall_shd_mem[l_mem_st][icnt_rc] = 0
gpgpu_stall_shd_mem[l_mem_ld][wb_icnt_rc] = 0
gpgpu_stall_shd_mem[l_mem_ld][wb_rsrv_fail] = 0
gpu_reg_bank_conflict_stalls = 0
Warp Occupancy Distribution:
Stall:27176478	W0_Idle:160958	W0_Scoreboard:204321370	W1:2739969	W2:1854549	W3:2044566	W4:1984113	W5:1268649	W6:1913121	W7:1053396	W8:1998522	W9:1108584	W10:1375506	W11:1064574	W12:1645200	W13:1041615	W14:1547163	W15:1045179	W16:1922152	W17:946719	W18:1370475	W19:944073	W20:1519083	W21:1011402	W22:1481094	W23:965808	W24:1666557	W25:974601	W26:1374714	W27:874305	W28:1767222	W29:1405089	W30:1393398	W31:2522763	W32:851787469
maxmrqlatency = 18 
maxdqlatency = 0 
maxmflatency = 278 
averagemflatency = 69 
max_icnt2mem_latency = 149 
max_icnt2sh_latency = 40402995 
mrq_lat_table:44178 	3558 	7284 	2608 	4 	0 	0 	0 	0 	0 	0 	0 	0 	0 	0 	0 	0 	0 	0 	0 	0 	0 	0 	0 	0 	0 	0 	0 	0 	0 	0 	0 	
dq_lat_table:0 	0 	0 	0 	0 	0 	0 	0 	0 	0 	0 	0 	0 	0 	0 	0 	0 	0 	0 	0 	0 	0 	0 	0 	0 	0 	0 	0 	0 	0 	0 	0 	
mf_lat_table:0 	0 	0 	0 	0 	0 	1666761 	12716 	13 	0 	0 	0 	0 	0 	0 	0 	0 	0 	0 	0 	0 	0 	0 	0 	0 	0 	0 	0 	0 	0 	0 	0 	
icnt2mem_lat_table:131 	1655616 	23181 	202 	218 	189 	121 	14 	0 	0 	0 	0 	0 	0 	0 	0 	0 	0 	0 	0 	0 	0 	0 	0 	
icnt2sh_lat_table:0 	803289 	841098 	13422 	49 	0 	0 	0 	0 	0 	0 	0 	0 	0 	0 	0 	0 	168 	168 	392 	640 	1160 	2340 	4728 	
mf_lat_pw_table:8408 	3628 	0 	0 	0 	0 	70828 	74 	0 	0 	0 	0 	0 	0 	0 	0 	0 	0 	0 	0 	0 	0 	0 	0 	0 	0 	0 	0 	0 	0 	0 	0 	
maximum concurrent accesses to same row:
dram[0]:        64        64        64        64        64        64        64        64        64        64        64        64        64        64        64        64 
dram[1]:        64        64        64        64        64        64        64        64        64        64        64        64        64        64        64        64 
dram[2]:        64        64        64        64        64        64        64        64        64        64        64        64        64        64        64        64 
dram[3]:        64        64        64        64        64        64        64        64        64        64        64        64        64        64        64        64 
dram[4]:        64        64        64        64        64        64        64        64        64        64        64        64        64        64        64        64 
maximum service time to same row:
dram[0]:   5751965   5466483   5821274   5527490   5734728   5172382   5636505   5570548   5610368   5604385   5410939   5663787   5464965   5550276   5168818   5694839 
dram[1]:   5751956   5466482   5821272   5527446   5734729   5271585   5636514   5570556   5610366   5604384   5410939   5663790   5456417   5550275   5058332   5694828 
dram[2]:   5751264   5470944   5823371   5519999   5732680   5303358   5638144   5575741   5608233   5610362   5388524   5658456   5456425   5545843   5028250   5685098 
dram[3]:   5751261   5470957   5823365   5534243   5748042   5184391   5638149   5575739   5606056   5612755   5388528   5658459   5452292   5545849   5323208   5685099 
dram[4]:   5731922   5442487   5831430   5614031   5754207   5308596   5439297   5575220   5602073   5605203   5386292   5705317   5576255   5551944   5297552   5609442 
average row accesses per activate:
dram[0]:  8.816092  8.186047  7.333333  9.777778 23.928572 12.444445 11.586206 11.047619 10.352942  8.771085 10.273973 14.720000 14.153846 13.851851 13.963636  9.035295 
dram[1]:  9.696202  8.380953  7.489362  8.691358 24.000000 13.714286 12.444445 10.875000  9.915493  7.663158 10.388889 15.020409 12.912281 12.896552 12.000000  8.629213 
dram[2]:  8.148936  8.380953  8.691358  7.910112 24.000000 12.679245 11.789474 11.258064  9.777778  8.878049 10.246575 14.431373 14.431373 12.229508 12.590164  8.439561 
dram[3]:  9.107142  8.380953  7.652174  8.380953 25.846153 12.444445 10.838710 12.245614 10.507463  8.611765 10.535212 14.153846 14.153846 12.862069 14.769231  8.258064 
dram[4]:  8.260870  8.091954  7.257732  8.433735 22.400000 12.000000 11.200000 11.258064  9.386666  8.413794 10.388889 14.153846 12.266666 13.392858 14.769231  8.827586 
average row locality = 57632/5423 = 10.627328
number of total memory accesses made:
dram[0]:         0         0         0         0         0         0         0         0         0         0         0         0         0         0         0         0 
dram[1]:         0         0         0         0         0         0         0         0         0         0         0         0         0         0         0         0 
dram[2]:         0         0         0         0         0         0         0         0         0         0         0         0         0         0         0         0 
dram[3]:         0         0         0         0         0         0         0         0         0         0         0         0         0         0         0         0 
dram[4]:         0         0         0         0         0         0         0         0         0         0         0         0         0         0         0         0 
total accesses: 0
min_bank_accesses = 0!
min_chip_accesses = 0!
number of total read accesses:
dram[0]:       485       448       448       448       414       416       416       440       448       460       462       448       448       460       480       480 
dram[1]:       484       448       448       448       416       416       416       440       448       460       460       448       448       460       480       480 
dram[2]:       484       448       448       448       416       416       416       442       448       460       460       448       448       458       480       480 
dram[3]:       483       448       448       448       416       416       416       442       448       462       460       448       448       458       480       480 
dram[4]:       480       448       448       444       416       416       416       442       448       462       460       448       448       462       480       480 
total reads: 36000
bank skew: 485/414 = 1.17
chip skew: 7201/7198 = 1.00
number of total write accesses:
dram[0]:       282       256       256       256       256       256       256       256       256       268       288       288       288       288       288       288 
dram[1]:       282       256       256       256       256       256       256       256       256       268       288       288       288       288       288       288 
dram[2]:       282       256       256       256       256       256       256       256       256       268       288       288       288       288       288       288 
dram[3]:       282       256       256       256       256       256       256       256       256       270       288       288       288       288       288       288 
dram[4]:       280       256       256       256       256       256       256       256       256       270       288       288       288       288       288       288 
total reads: 21632
bank skew: 288/256 = 1.12
chip skew: 4328/4326 = 1.00
average mf latency per bank:
dram[0]:       1911      2291      2628      1643      1584      2345      1984      1822      2582      2228      1534      2052      1983      1267      2043      2398
dram[1]:       1914      2300      2615      1638      1593      2346      1973      1827      2591      2214      1539      2061      1975      1264      2049      2396
dram[2]:       1929      2286      2614      1662      1577      2341      1986      1807      2588      2232      1539      2060      1988      1271      2030      2399
dram[3]:       1934      2274      2624      1688      1558      2332      1995      1792      2579      2236      1542      2052      2001      1272      2006      2404
dram[4]:       1938      2281      2624      1679      1561      2338      1991      1801      2575      2232      1538      2048      1995      1269      2020      2398
maximum mf latency per bank:
dram[0]:        151       142       141       137       184       158       137       251       155       139       188       157       137       226       179       138
dram[1]:        159       142       143       140       192       145       138       236       162       137       170       214       140       168       194       139
dram[2]:        136       148       143       135       190       170       138       278       158       137       194       183       138       173       225       139
dram[3]:        231       138       141       139       242       153       137       254       155       137       160       156       138       205       196       137
dram[4]:        180       148       136       138       182       157       137       218       178       140       157       153       138       257       170       137

Number of Memory Banks Accessed per Memory Operation per Warp (from 0):
0	0	0	0	0	0	0	0	0	0	0	0	0	0	0	0	0	0	0	0	0	0	0	0	0	0	0	0	0	0	0	0	0	0	0	0	0	0	0	0	0	0	0	0	0	0	0	0	0	0	0	0	0	0	0	0	0	0	0	0	0	0	0	0	0	0	0	0	0	0	0	0	0	0	0	0	0	0	0	0	
Average # of Memory Banks Accessed per Memory Operation per Warp=-nan

position of mrq chosen
0	0	0	0	0	0	0	0	0	0	0	0	0	0	0	0	

average position of mrq chosen = -nan
gpgpu_l2_write_miss = 0
gpgpu_l2_write_access = 0
gpgpu_l2_read_miss = 0
gpgpu_l2_read_access = 0
Cache L2_bank_000:
MSHR contents

DRAM[0]: 16 bks, busW=4 BL=8 CL=12, tRRD=2 tCCD=6, tRCD=12 tRAS=28 tRP=12 tRC=40
n_cmd=121208982 n_nop=121183814 n_act=1065 n_pre=1049 n_req=11527 n_rd=14402 n_write=8652 bw_util=0.0003804
n_activity=201629 dram_eff=0.2287
bk0: 970a 121203539i bk1: 896a 121203541i bk2: 896a 121203637i bk3: 896a 121203785i bk4: 828a 121203084i bk5: 832a 121203070i bk6: 832a 121203008i bk7: 880a 121203030i bk8: 896a 121201878i bk9: 920a 121202421i bk10: 924a 121202083i bk11: 896a 121203624i bk12: 896a 121200273i bk13: 920a 121200421i bk14: 960a 121199536i bk15: 960a 121175452i 
dram_util_bins: 0 0 0 0 0 0 0 0 0 0
dram_eff_bins: 0 0 0 0 0 0 0 0 0 0
mrqq: max=3 avg=0.000399616
Cache L2_bank_001:
MSHR contents

DRAM[1]: 16 bks, busW=4 BL=8 CL=12, tRRD=2 tCCD=6, tRCD=12 tRAS=28 tRP=12 tRC=40
n_cmd=121208982 n_nop=121183768 n_act=1089 n_pre=1073 n_req=11526 n_rd=14400 n_write=8652 bw_util=0.0003804
n_activity=202135 dram_eff=0.2281
bk0: 968a 121203819i bk1: 896a 121203706i bk2: 896a 121203753i bk3: 896a 121203309i bk4: 832a 121202756i bk5: 832a 121203091i bk6: 832a 121203253i bk7: 880a 121203327i bk8: 896a 121202182i bk9: 920a 121202296i bk10: 920a 121202243i bk11: 896a 121203741i bk12: 896a 121200383i bk13: 920a 121200160i bk14: 960a 121199192i bk15: 960a 121174874i 
dram_util_bins: 0 0 0 0 0 0 0 0 0 0
dram_eff_bins: 0 0 0 0 0 0 0 0 0 0
mrqq: max=4 avg=0.000399657
Cache L2_bank_002:
MSHR contents
MSHR: tag=0x802a2a80, atomic=0 1 entries : 0x69acfa0 :  mf: uid=531908870, sid10:w09, part=2, addr=0x802a2a80, load , size=128, unknown  status = IN_PARTITION_DRAM (40402995), 

DRAM[2]: 16 bks, busW=4 BL=8 CL=12, tRRD=2 tCCD=6, tRCD=12 tRAS=28 tRP=12 tRC=40
n_cmd=121208982 n_nop=121183765 n_act=1091 n_pre=1075 n_req=11526 n_rd=14399 n_write=8652 bw_util=0.0003804
n_activity=202299 dram_eff=0.2279
bk0: 967a 121203628i bk1: 896a 121203441i bk2: 896a 121203491i bk3: 896a 121203524i bk4: 832a 121202793i bk5: 832a 121203130i bk6: 832a 121203098i bk7: 884a 121203499i bk8: 896a 121201943i bk9: 920a 121202401i bk10: 920a 121201900i bk11: 896a 121203706i bk12: 896a 121200475i bk13: 916a 121200337i bk14: 960a 121199532i bk15: 960a 121174911i 
dram_util_bins: 0 0 0 0 0 0 0 0 0 0
dram_eff_bins: 0 0 0 0 0 0 0 0 0 0
mrqq: max=4 avg=0.000401051
Cache L2_bank_003:
MSHR contents
MSHR: tag=0x802a2b80, atomic=0 1 entries : 0x92e7960 :  mf: uid=531908871, sid10:w11, part=3, addr=0x802a2b80, load , size=128, unknown  status = IN_PARTITION_DRAM (40402994), 

DRAM[3]: 16 bks, busW=4 BL=8 CL=12, tRRD=2 tCCD=6, tRCD=12 tRAS=28 tRP=12 tRC=40
n_cmd=121208982 n_nop=121183792 n_act=1074 n_pre=1058 n_req=11529 n_rd=14402 n_write=8656 bw_util=0.0003805
n_activity=201805 dram_eff=0.2285
bk0: 966a 121203341i bk1: 896a 121203396i bk2: 896a 121203602i bk3: 896a 121203663i bk4: 832a 121203146i bk5: 832a 121203392i bk6: 832a 121203264i bk7: 884a 121203406i bk8: 896a 121201743i bk9: 924a 121202430i bk10: 920a 121202168i bk11: 896a 121203337i bk12: 896a 121200410i bk13: 916a 121200457i bk14: 960a 121199487i bk15: 960a 121175141i 
dram_util_bins: 0 0 0 0 0 0 0 0 0 0
dram_eff_bins: 0 0 0 0 0 0 0 0 0 0
mrqq: max=4 avg=0.000395193
Cache L2_bank_004:
MSHR contents

DRAM[4]: 16 bks, busW=4 BL=8 CL=12, tRRD=2 tCCD=6, tRCD=12 tRAS=28 tRP=12 tRC=40
n_cmd=121208982 n_nop=121183732 n_act=1109 n_pre=1093 n_req=11524 n_rd=14396 n_write=8652 bw_util=0.0003803
n_activity=203084 dram_eff=0.227
bk0: 960a 121203382i bk1: 896a 121203378i bk2: 896a 121203706i bk3: 888a 121203814i bk4: 832a 121202930i bk5: 832a 121202722i bk6: 832a 121202844i bk7: 884a 121202985i bk8: 896a 121202137i bk9: 924a 121202381i bk10: 920a 121202293i bk11: 896a 121203708i bk12: 896a 121200594i bk13: 924a 121200338i bk14: 960a 121199637i bk15: 960a 121174281i 
dram_util_bins: 0 0 0 0 0 0 0 0 0 0
dram_eff_bins: 0 0 0 0 0 0 0 0 0 0
mrqq: max=4 avg=0.00040299
Cache L2_bank_000:	Size = 131072 B (64 Set x 16-way x 128 byte line)
		Access = 335937, Miss = 7201 (0.0214), PendingHit = 608 (0.00181)
Cache L2_bank_001:	Size = 131072 B (64 Set x 16-way x 128 byte line)
		Access = 335906, Miss = 7200 (0.0214), PendingHit = 580 (0.00173)
Cache L2_bank_002:	Size = 131072 B (64 Set x 16-way x 128 byte line)
		Access = 336013, Miss = 7200 (0.0214), PendingHit = 587 (0.00175)
Cache L2_bank_003:	Size = 131072 B (64 Set x 16-way x 128 byte line)
		Access = 336001, Miss = 7201 (0.0214), PendingHit = 590 (0.00176)
Cache L2_bank_004:	Size = 131072 B (64 Set x 16-way x 128 byte line)
		Access = 335815, Miss = 7198 (0.0214), PendingHit = 588 (0.00175)
L2 Cache Total Miss Rate = 0.021

icnt_total_pkts_mem_to_simt=8309984
icnt_total_pkts_simt_to_mem=1766200

LD_mem_lat_dist  0 0 0 0 0 0 0 0 0 0 0 0 0 0 0 0 0 0 0 0 0 0 0 0 0 0 0
ST_mem_lat_dist  0 0 0 0 0 0 0 0 0 0 0 0 0 0 0 0 0 0 0 0 0 0 0 0 0 0 0
Traffic 0 Stat
%=================================
% Average latency = 1.07302
% Accepted packets = 0 at node 0 (avg = 0.000859654)
lat(3) = 1.07302;
thru(3,:) = [ 0 0 0 0 0 0 0 0 0 0 0 0 0 0 0.00395398 0.00395431 0.0039549 0.00395476 0.00395409 0 0 0 0 ];
% latency change    = 5.37278
% throughput change = 4.80784
Traffic 1 Stat
%=================================
% Average latency = 6.79591
% Accepted packets = 0 at node 14 (avg = 0.00404423)
lat(4) = 6.79591;
thru(4,:) = [ 0.00669992 0.00658997 0.00630714 0.00649498 0.00686446 0.00679511 0.00677351 0.00667021 0.00676218 0.00681418 0.00647974 0.00679851 0.00684992 0.00611742 0 0 0 0 0 0 0 0 0 ];
% latency change    = 0.842108
% throughput change = 0.787437
----------------------------Interconnect-DETAILS---------------------------------=======Traffic[0]class0 ======
Traffic[0]class0Overall average latency = 1.07197 (2 samples)
Traffic[0]class0Overall average accepted rate = 0.000960345 (2 samples)
Traffic[0]class0Overall min accepted rate = 0 (2 samples)
traffic_manager/latency_stat_0_freq = [ 0 820236 3694 155 100 7476 1072 351 1522 398 116 3 2 0 0 0 0 0 0 0 0 0 0 0 0 0 0 0 0 0 0 0 0 0 0 0 0 0 0 0 0 0 0 0 0 0 0 0 0 0 0 0 0 0 0 0 0 0 0 0 0 0 0 0 0 0 0 0 0 0 0 0 0 0 0 0 0 0 0 0 0 0 0 0 0 0 0 0 0 0 0 0 0 0 0 0 0 0 0 0 0 0 0 0 0 0 0 0 0 0 0 0 0 0 0 0 0 0 0 0 0 0 0 0 0 0 0 0 0 1 0 0 0 1 0 0 0 0 0 1 0 1 0 0 0 0 0 0 0 0 0 0 0 0 0 0 0 0 0 0 0 0 0 0 0 0 0 0 0 0 0 0 0 0 0 0 0 0 0 0 0 0 0 0 0 0 0 0 0 0 0 0 0 0 0 0 0 0 0 1 0 1 0 0 0 0 0 0 0 0 0 3 0 3 0 3 0 2 0 3 0 1 0 1 0 0 0 0 0 0 0 0 0 0 0 0 0 0 0 0 0 0 0 0 0 0 0 0 0 0 0 0 0 0 0 0 0 0 0 0 0 0 0 0 0 0 0 0 0 0 0 0 0 0 0 0 0 0 0 0 0 0 0 0 0 0 0 0 0 0 0 0 0 0 0 0 0 0 0 0 0 0 0 0 0 0 0 0 0 0 0 0 0 0 0 0 0 0 0 0 0 0 0 0 0 0 0 0 0 0 0 0 0 0 0 0 0 0 0 0 0 0 0 0 0 0 0 0 0 0 0 0 0 0 0 0 0 0 0 0 0 0 0 0 0 0 0 0 0 0 0 0 0 0 0 0 0 0 0 0 0 0 0 0 0 0 0 0 0 0 0 0 0 0 0 0 0 0 0 0 0 0 0 0 0 0 0 0 0 0 0 0 0 0 0 0 0 0 0 0 0 0 0 0 0 0 0 0 0 0 0 0 0 0 0 0 0 0 0 0 0 0 0 0 0 0 0 0 0 0 0 0 0 0 0 0 0 0 0 0 0 0 0 0 0 0 0 0 0 0 0 0 0 0 0 0 0 0 0 0 0 0 0 0 0 0 0 0 0 0 0 0 0 0 0 0 0 0 0 0 0 0 0 0 0 0 0 0 0 0 0 0 0 0 0 0 0 0 0 0 0 0 0 0 0 0 0 0 0 0 0 0 0 0 0 0 0 0 0 0 0 0 0 0 0 0 0 0 0 0 0 0 0 0 0 0 0 0 0 0 0 0 0 0 0 0 0 0 0 0 0 0 0 0 0 0 0 0 0 0 0 0 0 0 0 0 0 0 0 0 0 0 0 0 0 0 0 0 0 0 0 0 0 0 0 0 0 0 0 0 0 0 0 0 0 0 0 0 0 0 0 0 0 0 0 0 0 0 0 0 0 0 0 0 0 0 0 0 0 0 0 0 0 0 0 0 0 0 0 0 0 0 0 0 0 0 0 0 0 0 0 0 0 0 0 0 0 0 0 0 0 0 0 0 0 0 0 0 0 0 0 0 0 0 0 0 0 0 0 0 0 0 0 0 0 0 0 0 0 0 0 0 0 0 0 0 0 0 0 0 0 0 0 0 0 0 0 0 0 0 0 0 0 0 0 0 0 0 0 0 0 0 0 0 0 0 0 0 0 0 0 0 0 0 0 0 0 0 0 0 0 0 0 0 0 0 0 0 0 0 0 0 0 0 0 0 0 0 0 0 0 0 0 0 0 0 0 0 0 0 0 0 0 0 0 0 0 0 0 0 0 0 0 0 0 0 0 0 0 0 0 0 0 0 0 0 0 0 0 0 0 0 0 0 0 0 0 0 0 0 0 0 0 0 0 0 0 0 0 0 0 0 0 0 0 0 0 0 0 0 0 0 0 0 0 0 0 0 0 0 0 0 0 0 0 0 0 0 0 0 0 0 0 0 0 0 0 0 0 0 0 0 0 0 0 0 0 0 0 0 0 0 0 0 0 0 0 0 0 0 0 0 0 0 0 0 0 0 0 0 0 0 0 0 0 0 0 0 0 0 0 0 0 0 0 0 0 0 0 0 0 0 0 0 0 0 0 0 0 0 0 0 0 0 0 0 0 0 0 0 0 0 0 0 0 0 0 0 0 0 0 0 0 0 0 0 0 0 0 0 0 0 0 0 0 0 0 0 0 0 0 0 0 0 0 0 0 0 0 0 0 0 0 0 0 0 0 0 0 0 0 0 0 0 0 0 0 0 0 0 ];
Traffic[0]class1Average hops = 1 (1679672 samples)
traffic_manager/hop_stats_freq = [ 0 1679672 0 0 0 0 0 0 0 0 0 0 0 0 0 0 0 0 0 0 ];
=======Traffic[1]class0 ======
Traffic[1]class0Overall average latency = 6.81701 (2 samples)
Traffic[1]class0Overall average accepted rate = 0.00451848 (2 samples)
Traffic[1]class0Overall min accepted rate = 0 (2 samples)
traffic_manager/latency_stat_0_freq = [ 0 10346 190 47 65 392986 8272 10962 341294 17684 6426 6014 15058 6931 13301 674 2505 553 611 401 275 183 197 36 56 18 23 15 8 8 1 5 0 0 1 0 0 0 0 1 0 0 0 0 0 0 0 0 0 0 0 0 0 0 0 0 0 0 0 0 0 0 0 0 0 0 0 0 0 0 0 0 0 0 0 0 0 0 0 0 0 0 0 0 0 0 0 0 0 0 0 0 0 0 0 0 0 0 0 0 0 0 0 0 0 0 0 0 0 0 0 0 0 0 0 0 0 0 0 0 0 0 0 0 0 0 0 0 0 0 0 0 0 0 0 0 0 0 0 0 0 0 0 0 0 0 0 0 0 0 0 0 0 0 0 0 0 0 0 0 0 0 0 0 0 0 0 0 0 0 0 0 0 0 0 0 0 0 0 0 0 0 0 0 0 0 0 0 0 0 0 0 0 0 0 0 0 0 0 0 0 0 0 0 0 0 0 0 0 0 0 0 0 0 0 0 0 0 0 0 0 0 0 0 0 0 0 0 0 0 0 0 0 0 0 0 0 0 0 0 0 0 0 0 0 0 0 0 0 0 0 0 0 0 0 0 0 0 0 0 0 0 0 0 0 0 0 0 0 0 0 0 0 0 0 0 0 0 0 0 0 0 0 0 0 0 0 0 0 0 0 0 0 0 0 0 0 0 0 0 0 0 0 0 0 0 0 0 0 0 0 0 0 0 0 0 0 0 0 0 0 0 0 0 0 0 0 0 0 0 0 0 0 0 0 0 0 0 0 0 0 0 0 0 0 0 0 0 0 0 0 0 0 0 0 0 0 0 0 0 0 0 0 0 0 0 0 0 0 0 0 0 0 0 0 0 0 0 0 0 0 0 0 0 0 0 0 0 0 0 0 0 0 0 0 0 0 0 0 0 0 0 0 0 0 0 0 0 0 0 0 0 0 0 0 0 0 0 0 0 0 0 0 0 0 0 0 0 0 0 0 0 0 0 0 0 0 0 0 0 0 0 0 0 0 0 0 0 0 0 0 0 0 0 0 0 0 0 0 0 0 0 0 0 0 0 0 0 0 0 0 0 0 0 0 0 0 0 0 0 0 0 0 0 0 0 0 0 0 0 0 0 0 0 0 0 0 0 0 0 0 0 0 0 0 0 0 0 0 0 0 0 0 0 0 0 0 0 0 0 0 0 0 0 0 0 0 0 0 0 0 0 0 0 0 0 0 0 0 0 0 0 0 0 0 0 0 0 0 0 0 0 0 0 0 0 0 0 0 0 0 0 0 0 0 0 0 0 0 0 0 0 0 0 0 0 0 0 0 0 0 0 0 0 0 0 0 0 0 0 0 0 0 0 0 0 0 0 0 0 0 0 0 0 0 0 0 0 0 0 0 0 0 0 0 0 0 0 0 0 0 0 0 0 0 0 0 0 0 0 0 0 0 0 0 0 0 0 0 0 0 0 0 0 0 0 0 0 0 0 0 0 0 0 0 0 0 0 0 0 0 0 0 0 0 0 0 0 0 0 0 0 0 0 0 0 0 0 0 0 0 0 0 0 0 0 0 0 0 0 0 0 0 0 0 0 0 0 0 0 0 0 0 0 0 0 0 0 0 0 0 0 0 0 0 0 0 0 0 0 0 0 0 0 0 0 0 0 0 0 0 0 0 0 0 0 0 0 0 0 0 0 0 0 0 0 0 0 0 0 0 0 0 0 0 0 0 0 0 0 0 0 0 0 0 0 0 0 0 0 0 0 0 0 0 0 0 0 0 0 0 0 0 0 0 0 0 0 0 0 0 0 0 0 0 0 0 0 0 0 0 0 0 0 0 0 0 0 0 0 0 0 0 0 0 0 0 0 0 0 0 0 0 0 0 0 0 0 0 0 0 0 0 0 0 0 0 0 0 0 0 0 0 0 0 0 0 0 0 0 0 0 0 0 0 0 0 0 0 0 0 0 0 0 0 0 0 0 0 0 0 0 0 0 0 0 0 0 0 0 0 0 0 0 0 0 0 0 0 0 0 0 0 0 0 0 0 0 0 0 0 0 0 0 0 0 0 0 0 0 0 0 0 0 0 0 0 0 0 0 0 0 0 0 0 0 0 0 0 0 0 0 0 0 0 0 0 0 0 0 0 0 0 0 0 0 0 0 0 0 0 0 0 0 0 0 0 0 0 0 0 0 0 0 0 0 0 0 0 0 0 0 0 0 0 0 0 0 0 0 0 0 0 0 0 0 0 0 0 0 0 0 0 0 0 0 0 0 0 0 ];
Traffic[1]class1Average hops = 1 (1679672 samples)
traffic_manager/hop_stats_freq = [ 0 1679672 0 0 0 0 0 0 0 0 0 0 0 0 0 0 0 0 0 0 ];
----------------------------END-of-Interconnect-DETAILS-------------------------

gpgpu_simulation_time = 0 days, 12 hrs, 3 min, 45 sec (43425 sec)
gpgpu_simulation_rate = 618848 (inst/sec)
gpgpu_simulation_rate = 930 (cycle/sec)
Finished CUDA kernel calls                        
computing extra atoms on CPU


