

        *** GPGPU-Sim Simulator Version 3.2.1  [build 15629] ***


               1=functional simulation only, 0=detailed performance simulator)
GPGPU-Sim: Configuration options:

-network_mode                           1 # Interconnection network mode
-inter_config_file   config_fermi_islip.icnt # Interconnection network config file
-gpgpu_ptx_use_cuobjdump                    1 # Use cuobjdump to extract ptx and sass from binaries
-gpgpu_experimental_lib_support                    0 # Try to extract code from cuda libraries [Broken because of unknown cudaGetExportTable]
-gpgpu_ptx_convert_to_ptxplus                    0 # Convert SASS (native ISA) to ptxplus and run ptxplus
-gpgpu_ptx_force_max_capability                   20 # Force maximum compute capability
-gpgpu_ptx_inst_debug_to_file                    0 # Dump executed instructions' debug information to file
-gpgpu_ptx_inst_debug_file       inst_debug.txt # Executed instructions' debug output file
-gpgpu_ptx_inst_debug_thread_uid                    1 # Thread UID for executed instructions' debug output
-gpgpu_simd_model                       1 # 1 = post-dominator
-gpgpu_shader_core_pipeline              1536:32 # shader core pipeline config, i.e., {<nthread>:<warpsize>}
-gpgpu_tex_cache:l1  4:128:24,L:R:m:N,F:128:4,128:2 # per-shader L1 texture cache  (READ-ONLY) config  {<nsets>:<bsize>:<assoc>,<rep>:<wr>:<alloc>:<wr_alloc>,<mshr>:<N>:<merge>,<mq>:<rf>}
-gpgpu_const_cache:l1 64:64:2,L:R:f:N,A:2:32,4 # per-shader L1 constant memory cache  (READ-ONLY) config  {<nsets>:<bsize>:<assoc>,<rep>:<wr>:<alloc>:<wr_alloc>,<mshr>:<N>:<merge>,<mq>} 
-gpgpu_cache:il1     4:128:4,L:R:f:N,A:2:32,4 # shader L1 instruction cache config  {<nsets>:<bsize>:<assoc>,<rep>:<wr>:<alloc>:<wr_alloc>,<mshr>:<N>:<merge>,<mq>} 
-gpgpu_cache:dl1     32:128:4,L:L:m:N,A:32:8,8 # per-shader L1 data cache config  {<nsets>:<bsize>:<assoc>,<rep>:<wr>:<alloc>:<wr_alloc>,<mshr>:<N>:<merge>,<mq> | none}
-gpgpu_perfect_mem                      0 # enable perfect memory mode (no cache miss)
-n_regfile_gating_group                    4 # group of lanes that should be read/written together)
-gpgpu_clock_gated_reg_file                    0 # enable clock gated reg file for power calculations
-gpgpu_clock_gated_lanes                    0 # enable clock gated lanes for power calculations
-gpgpu_shader_registers                32768 # Number of registers per shader core. Limits number of concurrent CTAs. (default 8192)
-gpgpu_shader_cta                       8 # Maximum number of concurrent CTAs in shader (default 8)
-gpgpu_n_clusters                      14 # number of processing clusters
-gpgpu_n_cores_per_cluster                    1 # number of simd cores per cluster
-gpgpu_n_cluster_ejection_buffer_size                    8 # number of packets in ejection buffer
-gpgpu_n_ldst_response_buffer_size                    2 # number of response packets in ld/st unit ejection buffer
-gpgpu_shmem_size                   16384 # Size of shared memory per shader core (default 16kB)
-gpgpu_shmem_num_banks                   32 # Number of banks in the shared memory in each shader core (default 16)
-gpgpu_shmem_limited_broadcast                    0 # Limit shared memory to do one broadcast per cycle (default on)
-gpgpu_shmem_warp_parts                    1 # Number of portions a warp is divided into for shared memory bank conflict check 
-gpgpu_warpdistro_shader                   -1 # Specify which shader core to collect the warp size distribution from
-gpgpu_warp_issue_shader                    0 # Specify which shader core to collect the warp issue distribution from
-gpgpu_local_mem_map                    1 # Mapping from local memory space address to simulated GPU physical address space (default = enabled)
-gpgpu_num_reg_banks                   16 # Number of register banks (default = 8)
-gpgpu_reg_bank_use_warp_id                    0 # Use warp ID in mapping registers to banks (default = off)
-gpgpu_operand_collector_num_units_sp                    6 # number of collector units (default = 4)
-gpgpu_operand_collector_num_units_sfu                    8 # number of collector units (default = 4)
-gpgpu_operand_collector_num_units_mem                    2 # number of collector units (default = 2)
-gpgpu_operand_collector_num_units_gen                    0 # number of collector units (default = 0)
-gpgpu_operand_collector_num_in_ports_sp                    2 # number of collector unit in ports (default = 1)
-gpgpu_operand_collector_num_in_ports_sfu                    1 # number of collector unit in ports (default = 1)
-gpgpu_operand_collector_num_in_ports_mem                    1 # number of collector unit in ports (default = 1)
-gpgpu_operand_collector_num_in_ports_gen                    0 # number of collector unit in ports (default = 0)
-gpgpu_operand_collector_num_out_ports_sp                    2 # number of collector unit in ports (default = 1)
-gpgpu_operand_collector_num_out_ports_sfu                    1 # number of collector unit in ports (default = 1)
-gpgpu_operand_collector_num_out_ports_mem                    1 # number of collector unit in ports (default = 1)
-gpgpu_operand_collector_num_out_ports_gen                    0 # number of collector unit in ports (default = 0)
-gpgpu_coalesce_arch                   13 # Coalescing arch (default = 13, anything else is off for now)
-gpgpu_num_sched_per_core                    2 # Number of warp schedulers per core
-gpgpu_max_insn_issue_per_warp                    1 # Max number of instructions that can be issued per warp in one cycle by scheduler
-gpgpu_simt_core_sim_order                    1 # Select the simulation order of cores in a cluster (0=Fix, 1=Round-Robin)
-gpgpu_pipeline_widths        2,1,1,2,1,1,2 # Pipeline widths ID_OC_SP,ID_OC_SFU,ID_OC_MEM,OC_EX_SP,OC_EX_SFU,OC_EX_MEM,EX_WB
-gpgpu_num_sp_units                     2 # Number of SP units (default=1)
-gpgpu_num_sfu_units                    1 # Number of SF units (default=1)
-gpgpu_num_mem_units                    1 # Number if ldst units (default=1) WARNING: not hooked up to anything
-gpgpu_scheduler                      lrr # Scheduler configuration: < lrr | gto | two_level_active > If two_level_active:<num_active_warps>:<inner_prioritization>:<outer_prioritization>For complete list of prioritization values see shader.h enum scheduler_prioritization_typeDefault: gto
-gpgpu_dram_scheduler                    1 # 0 = fifo, 1 = FR-FCFS (defaul)
-gpgpu_dram_partition_queues              8:8:8:8 # i2$:$2d:d2$:$2i
-l2_ideal                               0 # Use a ideal L2 cache that always hit
-gpgpu_cache:dl2     64:128:16,L:B:m:W,A:32:4,4 # unified banked L2 data cache config  {<nsets>:<bsize>:<assoc>,<rep>:<wr>:<alloc>:<wr_alloc>,<mshr>:<N>:<merge>,<mq>}
-gpgpu_cache:dl2_texture_only                    0 # L2 cache used for texture only
-gpgpu_n_mem                            5 # number of memory modules (e.g. memory controllers) in gpu
-gpgpu_n_mem_per_ctrlr                    2 # number of memory chips per memory controller
-gpgpu_memlatency_stat                   14 # track and display latency statistics 0x2 enables MC, 0x4 enables queue logs
-gpgpu_frfcfs_dram_sched_queue_size                   16 # 0 = unlimited (default); # entries per chip
-gpgpu_dram_return_queue_size                    0 # 0 = unlimited (default); # entries per chip
-gpgpu_dram_buswidth                    4 # default = 4 bytes (8 bytes per cycle at DDR)
-gpgpu_dram_burst_length                    8 # Burst length of each DRAM request (default = 4 data bus cycle)
-dram_data_command_freq_ratio                    4 # Frequency ratio between DRAM data bus and command bus (default = 2 times, i.e. DDR)
-gpgpu_dram_timing_opt nbk=16:CCD=2:RRD=6:RCD=12:RAS=28:RP=12:RC=40: CL=12:WL=4:CDLR=5:WR=12:nbkgrp=4:CCDL=3:RTPL=2 # DRAM timing parameters = {nbk:tCCD:tRRD:tRCD:tRAS:tRP:tRC:CL:WL:tCDLR:tWR:nbkgrp:tCCDL:tRTPL}
-rop_latency                           80 # ROP queue latency (default 85)
-dram_latency                          67 # DRAM latency (default 30)
-gpgpu_mem_addr_mapping dramid@8;00000000.00000000.00000000.00000000.0000RRRR.RRRRRRRR.BBBBCCCC.CCSSSSSS # mapping memory address to dram model {dramid@<start bit>;<memory address map>}
-gpgpu_mem_addr_test                    0 # run sweep test to check address mapping for aliased address
-gpgpu_mem_address_mask                    1 # 0 = old addressing mask, 1 = new addressing mask, 2 = new add. mask + flipped bank sel and chip sel bits
-gpuwattch_xml_file         gpuwattch.xml # GPUWattch XML file
-power_simulation_enabled                    1 # Turn on power simulator (1=On, 0=Off)
-power_per_cycle_dump                    0 # Dump detailed power output each cycle
-power_trace_enabled                    1 # produce a file for the power trace (1=On, 0=Off)
-power_trace_zlevel                     6 # Compression level of the power trace output log (0=no comp, 9=highest)
-steady_power_levels_enabled                    0 # produce a file for the steady power levels (1=On, 0=Off)
-steady_state_definition                  8:4 # allowed deviation:number of samples
-gpgpu_max_cycle                        0 # terminates gpu simulation early (0 = no limit)
-gpgpu_max_insn                         0 # terminates gpu simulation early (0 = no limit)
-gpgpu_max_cta                          0 # terminates gpu simulation early (0 = no limit)
-gpgpu_runtime_stat                   500 # display runtime statistics such as dram utilization {<freq>:<flag>}
-gpgpu_flush_l1_cache                    0 # Flush L1 cache at the end of each kernel call
-gpgpu_flush_l2_cache                    0 # Flush L2 cache at the end of each kernel call
-gpgpu_deadlock_detect                    1 # Stop the simulation at deadlock (1=on (default), 0=off)
-gpgpu_ptx_instruction_classification                    0 # if enabled will classify ptx instruction types per kernel (Max 255 kernels now)
-gpgpu_ptx_sim_mode                     0 # Select between Performance (default) or Functional simulation (1)
-gpgpu_clock_domains 400.0:800.0:400.0:900.0 # Clock Domain Frequencies in MhZ {<Core Clock>:<ICNT Clock>:<L2 Clock>:<DRAM Clock>}
-gpgpu_max_concurrent_kernel                    8 # maximum kernels that can run concurrently on GPU
-gpgpu_cflog_interval                    0 # Interval between each snapshot in control flow logger
-visualizer_enabled                     0 # Turn on visualizer output (1=On, 0=Off)
-visualizer_outputfile                 NULL # Specifies the output log file for visualizer
-visualizer_zlevel                      6 # Compression level of the visualizer output log (0=no comp, 9=highest)
-trace_enabled                          0 # Turn on traces
-trace_components                    none # comma seperated list of traces to enable. Complete list found in trace_streams.tup. Default none
-trace_sampling_core                    0 # The core which is printed using CORE_DPRINTF. Default 0
-enable_ptx_file_line_stats                    1 # Turn on PTX source line statistic profiling. (1 = On)
-ptx_line_stats_filename gpgpu_inst_stats.txt # Output file for PTX source line statistics.
-save_embedded_ptx                      0 # saves ptx files embedded in binary as <n>.ptx
-keep                                   0 # keep intermediate files created by GPGPU-Sim when interfacing with external programs
-gpgpu_ptx_save_converted_ptxplus                    0 # Saved converted ptxplus to a file
-ptx_opcode_latency_int         4,13,4,5,145 # Opcode latencies for integers <ADD,MAX,MUL,MAD,DIV>Default 1,1,19,25,145
-ptx_opcode_latency_fp          4,13,4,5,39 # Opcode latencies for single precision floating points <ADD,MAX,MUL,MAD,DIV>Default 1,1,1,1,30
-ptx_opcode_latency_dp         8,19,8,8,330 # Opcode latencies for double precision floating points <ADD,MAX,MUL,MAD,DIV>Default 8,8,8,8,335
-ptx_opcode_initiation_int            1,2,2,1,8 # Opcode initiation intervals for integers <ADD,MAX,MUL,MAD,DIV>Default 1,1,4,4,32
-ptx_opcode_initiation_fp            1,2,1,1,4 # Opcode initiation intervals for single precision floating points <ADD,MAX,MUL,MAD,DIV>Default 18474252c40eae18fb7340f72dd54c0e  /tmp/tmp.15cIXbYkjq/mriq__SIZE1_1
1,1,1,1,5
-ptx_opcode_initiation_dp         8,16,8,8,130 # Opcode initiation intervals for double precision floating points <ADD,MAX,MUL,MAD,DIV>Default 8,8,8,8,130
DRAM Timing Options:
nbk                                    16 # number of banks
CCD                                     2 # column to column delay
RRD                                     6 # minimal delay between activation of rows in different banks
RCD                                    12 # row to column delay
RAS                                    28 # time needed to activate row
RP                                     12 # time needed to precharge (deactivate) row
RC                                     40 # row cycle time
CDLR                                    5 # switching from write to read (changes tWTR)
WR                                     12 # last data-in to row precharge
CL                                     12 # CAS latency
WL                                      4 # Write latency
nbkgrp                                  4 # number of bank groups
CCDL                                    3 # column to column delay between accesses to different bank groups
RTPL                                    2 # read to precharge delay between accesses to different bank groups
addr_dec_mask[CHIP]  = 0000000000000000 	high:64 low:0
addr_dec_mask[BK]    = 000000000000f000 	high:16 low:12
addr_dec_mask[ROW]   = 000000000fff0000 	high:28 low:16
addr_dec_mask[COL]   = 0000000000000fff 	high:12 low:0
addr_dec_mask[BURST] = 000000000000003f 	high:6 low:0
*** Initializing Memory Statistics ***
self exe links to: /tmp/tmp.15cIXbYkjq/mriq__SIZE1_1
Running md5sum using "md5sum /tmp/tmp.15cIXbYkjq/mriq__SIZE1_1 "
Running cuobjdump using "$CUDA_INSTALL_PATH/bin/cuobjdump -ptx -elf -sass /tmp/tmp.15cIXbYkjq/mriq__SIZE1_1 > _cuobjdump_complete_output_qQgSU0"
Parsing file _cuobjdump_complete_output_qQgSU0
######### cuobjdump parser ########
## Adding new section PTX
Adding ptx filename: _cuobjdump_1.ptx
Adding arch: sm_13
Adding identifier: benchmarks/mriq/mriq.cu
## Adding new section ELF
Adding arch: sm_13
Adding identifier: benchmarks/mriq/mriq.cu
Done parsing!!!
Adding _cuobjdump_1.ptx with cubin handle 1
Running: cat _ptx_bbnidR | sed 's/.version 1.5/.version 1.4/' | sed 's/, texmode_independent//' | sed 's/\(\.extern \.const\[1\] .b8 \w\+\)\[\]/\1\[1\]/' | sed 's/const\[.\]/const\[0\]/g' > _ptx2_K3rKvH
GPGPU-Sim PTX registering constant ck (16384 bytes) to name mapping
262144 pixels in output; 2048 samples in trajectory; using 2048 samples
GPGPU-Sim: synchronize waiting for inactive GPU simulation
GPGPU-Sim API: Stream Manager State
GPGPU-Sim: detected inactive GPU simulation thread

kernel '_Z17ComputePhiMag_GPUPfS_S_i' transfer to GPU hardware scheduler
kernel_name = _Z17ComputePhiMag_GPUPfS_S_i 
kernel_launch_uid = 1 
gpu_sim_cycle = 1162
gpu_sim_insn = 40960
gpu_ipc =      35.2496
gpu_tot_sim_cycle = 1162
gpu_tot_sim_insn = 40960
gpu_tot_ipc =      35.2496
gpu_tot_issued_cta = 0
gpu_stall_dramfull = 0
gpu_stall_icnt2sh    = 560
gpu_total_sim_rate=40960
Cache L1D_000:	Size = 16384 B (32 Set x 4-way x 128 byte line)
		Access = 0, Miss = 0 (-nan), PendingHit = 0 (-nan)
Cache L1D_001:	Size = 16384 B (32 Set x 4-way x 128 byte line)
		Access = 32, Miss = 32 (1), PendingHit = 0 (0)
Cache L1D_002:	Size = 16384 B (32 Set x 4-way x 128 byte line)
		Access = 32, Miss = 32 (1), PendingHit = 0 (0)
Cache L1D_003:	Size = 16384 B (32 Set x 4-way x 128 byte line)
		Access = 32, Miss = 32 (1), PendingHit = 0 (0)
Cache L1D_004:	Size = 16384 B (32 Set x 4-way x 128 byte line)
		Access = 32, Miss = 32 (1), PendingHit = 0 (0)
Cache L1D_005:	Size = 16384 B (32 Set x 4-way x 128 byte line)
		Access = 0, Miss = 0 (-nan), PendingHit = 0 (-nan)
Cache L1D_006:	Size = 16384 B (32 Set x 4-way x 128 byte line)
		Access = 0, Miss = 0 (-nan), PendingHit = 0 (-nan)
Cache L1D_007:	Size = 16384 B (32 Set x 4-way x 128 byte line)
		Access = 0, Miss = 0 (-nan), PendingHit = 0 (-nan)
Cache L1D_008:	Size = 16384 B (32 Set x 4-way x 128 byte line)
		Access = 0, Miss = 0 (-nan), PendingHit = 0 (-nan)
Cache L1D_009:	Size = 16384 B (32 Set x 4-way x 128 byte line)
		Access = 0, Miss = 0 (-nan), PendingHit = 0 (-nan)
Cache L1D_010:	Size = 16384 B (32 Set x 4-way x 128 byte line)
		Access = 0, Miss = 0 (-nan), PendingHit = 0 (-nan)
Cache L1D_011:	Size = 16384 B (32 Set x 4-way x 128 byte line)
		Access = 0, Miss = 0 (-nan), PendingHit = 0 (-nan)
Cache L1D_012:	Size = 16384 B (32 Set x 4-way x 128 byte line)
		Access = 0, Miss = 0 (-nan), PendingHit = 0 (-nan)
Cache L1D_013:	Size = 16384 B (32 Set x 4-way x 128 byte line)
		Access = 0, Miss = 0 (-nan), PendingHit = 0 (-nan)
total_dl1_misses=128
total_dl1_accesses=128
total_dl1_miss_rate= 1.000000
Shader 0 dynamic_warp_id issue ditsribution:
dynamic_warp_id:

distro:

gpgpu_n_tot_thrd_icount = 43008
gpgpu_n_tot_w_icount = 1344
gpgpu_n_icache_hits = 704
gpgpu_n_icache_misses = 128
gpgpu_n_l1dcache_read_hits = 0
gpgpu_n_l1dcache_read_misses = 128
gpgpu_n_l1dcache_write_accesses = 64
gpgpu_n_l1dcache_wirte_misses = 64
gpgpu_n_tcache_hits = 0
gpgpu_n_tcache_misses = 0
gpgpu_n_ccache_hits = 192
gpgpu_n_ccache_misses = 64
gpgpu_n_stall_shd_mem = 0
gpgpu_n_mem_read_local = 0
gpgpu_n_mem_write_local = 0
gpgpu_n_mem_read_global = 128
gpgpu_n_mem_write_global = 64
gpgpu_n_mem_texture = 0
gpgpu_n_mem_const = 4
gpgpu_n_load_insn  = 8192
gpgpu_n_store_insn = 4096
gpgpu_n_shmem_insn = 0
gpgpu_n_tex_insn = 0
gpgpu_n_const_mem_insn = 0
gpgpu_n_param_mem_insn = 16384
gpgpu_n_shmem_bkconflict = 0
gpgpu_n_cache_bkconflict = 0
gpgpu_n_intrawarp_mshr_merge = 0
gpgpu_n_cmem_portconflict = 0
gpgpu_stall_shd_mem[c_mem][bk_conf] = 0
gpgpu_stall_shd_mem[c_mem][mshr_rc] = 0
gpgpu_stall_shd_mem[c_mem][icnt_rc] = 0
gpgpu_stall_shd_mem[t_mem][mshr_rc] = 0
gpgpu_stall_shd_mem[t_mem][icnt_rc] = 0
gpgpu_stall_shd_mem[s_mem][bk_conf] = 0
gpgpu_stall_shd_mem[gl_mem][bk_conf] = 0
gpgpu_stall_shd_mem[gl_mem][coal_stall] = 0
gpgpu_stall_shd_mem[g_mem_ld][mshr_rc] = 0
gpgpu_stall_shd_mem[g_mem_ld][icnt_rc] = 0
gpgpu_stall_shd_mem[g_mem_ld][wb_icnt_rc] = 0
gpgpu_stall_shd_mem[g_mem_ld][wb_rsrv_fail] = 0
gpgpu_stall_shd_mem[g_mem_st][mshr_rc] = 0
gpgpu_stall_shd_mem[g_mem_st][icnt_rc] = 0
gpgpu_stall_shd_mem[g_mem_st][wb_icnt_rc] = 0
gpgpu_stall_shd_mem[g_mem_st][wb_rsrv_fail] = 0
gpgpu_stall_shd_mem[l_mem_ld][mshr_rc] = 0
gpgpu_stall_shd_mem[l_mem_ld][icnt_rc] = 0
gpgpu_stall_shd_mem[l_mem_ld][wb_icnt_rc] = 0
gpgpu_stall_shd_mem[l_mem_ld][wb_rsrv_fail] = 0
gpgpu_stall_shd_mem[l_mem_st][mshr_rc] = 0
gpgpu_stall_shd_mem[l_mem_st][icnt_rc] = 0
gpgpu_stall_shd_mem[l_mem_ld][wb_icnt_rc] = 0
gpgpu_stall_shd_mem[l_mem_ld][wb_rsrv_fail] = 0
gpu_reg_bank_conflict_stalls = 0
Warp Occupancy Distribution:
Stall:127	W0_Idle:4690	W0_Scoreboard:3027	W1:0	W2:0	W3:0	W4:0	W5:0	W6:0	W7:0	W8:0	W9:0	W10:0	W11:0	W12:0	W13:0	W14:0	W15:0	W16:0	W17:0	W18:0	W19:0	W20:0	W21:0	W22:0	W23:0	W24:0	W25:0	W26:0	W27:0	W28:0	W29:0	W30:0	W31:0	W32:1344
maxmrqlatency = 104 
maxdqlatency = 0 
maxmflatency = 300 
averagemflatency = 187 
max_icnt2mem_latency = 24 
max_icnt2sh_latency = 1161 
mrq_lat_table:49 	19 	33 	43 	29 	37 	49 	0 	0 	0 	0 	0 	0 	0 	0 	0 	0 	0 	0 	0 	0 	0 	0 	0 	0 	0 	0 	0 	0 	0 	0 	0 	
dq_lat_table:0 	0 	0 	0 	0 	0 	0 	0 	0 	0 	0 	0 	0 	0 	0 	0 	0 	0 	0 	0 	0 	0 	0 	0 	0 	0 	0 	0 	0 	0 	0 	0 	
mf_lat_table:0 	0 	0 	0 	0 	0 	0 	180 	16 	0 	0 	0 	0 	0 	0 	0 	0 	0 	0 	0 	0 	0 	0 	0 	0 	0 	0 	0 	0 	0 	0 	0 	
icnt2mem_lat_table:5 	132 	25 	23 	19 	0 	0 	0 	0 	0 	0 	0 	0 	0 	0 	0 	0 	0 	0 	0 	0 	0 	0 	0 	
icnt2sh_lat_table:0 	12 	20 	69 	31 	0 	0 	0 	0 	15 	49 	0 	0 	0 	0 	0 	0 	0 	0 	0 	0 	0 	0 	0 	
mf_lat_pw_table:0 	0 	0 	0 	0 	0 	0 	2 	0 	0 	0 	0 	0 	0 	0 	0 	0 	0 	0 	0 	0 	0 	0 	0 	0 	0 	0 	0 	0 	0 	0 	0 	
maximum concurrent accesses to same row:
dram[0]:         0         0         0         0         0         0         0         0         0         0         0         0         0         0         0         0 
dram[1]:         0         0         0         0         0         0         0         0         0         0         0         0         0         0         0         0 
dram[2]:         0         0         0         0         0         0         0         0         0         0         0         0         0         0         0         0 
dram[3]:         0         0         0         0         0         0         0         0         0         0         0         0         0         0         0         0 
dram[4]:         0         0         0         0         0         0         0         0         0         0         0         0         0         0         0         0 
maximum service time to same row:
dram[0]:         0         0         0         0         0         0         0         0         0       579       598         0         0         0         0         0 
dram[1]:         0         0         0         0         0         0         0         0         0       582       596         0         0         0         0         0 
dram[2]:         0         0         0         0         0         0         0         0         0       578       597         0         0         0         0         0 
dram[3]:         0         0         0         0         0         0         0         0         0       574       600         0         0         0         0         0 
dram[4]:         0         0         0         0         0         0         0         0         0       577       602         0         0         0         0         0 
average row accesses per activate:
dram[0]:       inf      -nan      -nan      -nan      -nan      -nan      -nan      -nan      -nan 12.000000 38.000000      -nan      -nan      -nan      -nan      -nan 
dram[1]:      -nan      -nan      -nan      -nan      -nan      -nan      -nan      -nan      -nan 12.000000 38.000000      -nan      -nan      -nan      -nan      -nan 
dram[2]:      -nan      -nan      -nan      -nan      -nan      -nan      -nan      -nan      -nan 12.000000 40.000000      -nan      -nan      -nan      -nan      -nan 
dram[3]:      -nan      -nan      -nan      -nan      -nan      -nan      -nan      -nan      -nan 14.000000 40.000000      -nan      -nan      -nan      -nan      -nan 
dram[4]:      -nan      -nan      -nan      -nan      -nan      -nan      -nan      -nan      -nan 14.000000 36.000000      -nan      -nan      -nan      -nan      -nan 
average row locality = 259/10 = 25.900000
number of total memory accesses made:
dram[0]:         0         0         0         0         0         0         0         0         0         0         0         0         0         0         0         0 
dram[1]:         0         0         0         0         0         0         0         0         0         0         0         0         0         0         0         0 
dram[2]:         0         0         0         0         0         0         0         0         0         0         0         0         0         0         0         0 
dram[3]:         0         0         0         0         0         0         0         0         0         0         0         0         0         0         0         0 
dram[4]:         0         0         0         0         0         0         0         0         0         0         0         0         0         0         0         0 
total accesses: 0
min_bank_accesses = 0!
min_chip_accesses = 0!
number of total read accesses:
dram[0]:         3         0         0         0         0         0         0         0         0        12        26         0         0         0         0         0 
dram[1]:         0         0         0         0         0         0         0         0         0        12        26         0         0         0         0         0 
dram[2]:         0         0         0         0         0         0         0         0         0        12        26         0         0         0         0         0 
dram[3]:         0         0         0         0         0         0         0         0         0        14        26         0         0         0         0         0 
dram[4]:         0         0         0         0         0         0         0         0         0        14        24         0         0         0         0         0 
total reads: 195
min_bank_accesses = 0!
chip skew: 41/38 = 1.08
number of total write accesses:
dram[0]:         0         0         0         0         0         0         0         0         0         0        12         0         0         0         0         0 
dram[1]:         0         0         0         0         0         0         0         0         0         0        12         0         0         0         0         0 
dram[2]:         0         0         0         0         0         0         0         0         0         0        14         0         0         0         0         0 
dram[3]:         0         0         0         0         0         0         0         0         0         0        14         0         0         0         0         0 
dram[4]:         0         0         0         0         0         0         0         0         0         0        12         0         0         0         0         0 
total reads: 64
min_bank_accesses = 0!
chip skew: 14/12 = 1.17
average mf latency per bank:
dram[0]:        215    none      none      none      none      none      none      none      none         178       143    none      none      none      none      none  
dram[1]:     none      none      none      none      none      none      none      none      none         180       147    none      none      none      none      none  
dram[2]:     none      none      none      none      none      none      none      none      none         169       135    none      none      none      none      none  
dram[3]:     none      none      none      none      none      none      none      none      none         174       139    none      none      none      none      none  
dram[4]:     none      none      none      none      none      none      none      none      none         178       139    none      none      none      none      none  
maximum mf latency per bank:
dram[0]:        163         0         0         0         0         0         0         0         0       192       273         0         0         0         0         0
dram[1]:          0         0         0         0         0         0         0         0         0       186       276         0         0         0         0         0
dram[2]:          0         0         0         0         0         0         0         0         0       172       289         0         0         0         0         0
dram[3]:          0         0         0         0         0         0         0         0         0       186       300         0         0         0         0         0
dram[4]:          0         0         0         0         0         0         0         0         0       191       277         0         0         0         0         0

Number of Memory Banks Accessed per Memory Operation per Warp (from 0):
0	0	0	0	0	0	0	0	0	0	0	0	0	0	0	0	0	0	0	0	0	0	0	0	0	0	0	0	0	0	0	0	0	0	0	0	0	0	0	0	0	0	0	0	0	0	0	0	0	0	0	0	0	0	0	0	0	0	0	0	0	0	0	0	0	0	0	0	0	0	0	0	0	0	0	0	0	0	0	0	
Average # of Memory Banks Accessed per Memory Operation per Warp=-nan

position of mrq chosen
0	0	0	0	0	0	0	0	0	0	0	0	0	0	0	0	

average position of mrq chosen = -nan
gpgpu_l2_write_miss = 0
gpgpu_l2_write_access = 0
gpgpu_l2_read_miss = 0
gpgpu_l2_read_access = 0
Cache L2_bank_000:
MSHR contents

DRAM[0]: 16 bks, busW=4 BL=8 CL=12, tRRD=2 tCCD=6, tRCD=12 tRAS=28 tRP=12 tRC=40
n_cmd=2613 n_nop=2504 n_act=3 n_pre=0 n_req=53 n_rd=82 n_write=24 bw_util=0.08113
n_activity=597 dram_eff=0.3551
bk0: 6a 2592i bk1: 0a 2589i bk2: 0a 2592i bk3: 0a 2579i bk4: 0a 2577i bk5: 0a 2579i bk6: 0a 2576i bk7: 0a 2579i bk8: 0a 2571i bk9: 24a 2566i bk10: 52a 2578i bk11: 0a 2581i bk12: 0a 2574i bk13: 0a 2577i bk14: 0a 2575i bk15: 0a 2554i 
dram_util_bins: 0 0 0 0 0 0 0 0 0 0
dram_eff_bins: 0 0 0 0 0 0 0 0 0 0
mrqq: max=16 avg=1.08381
Cache L2_bank_001:
MSHR contents

DRAM[1]: 16 bks, busW=4 BL=8 CL=12, tRRD=2 tCCD=6, tRCD=12 tRAS=28 tRP=12 tRC=40
n_cmd=2613 n_nop=2511 n_act=2 n_pre=0 n_req=50 n_rd=76 n_write=24 bw_util=0.07654
n_activity=525 dram_eff=0.381
bk0: 0a 2593i bk1: 0a 2592i bk2: 0a 2579i bk3: 0a 2577i bk4: 0a 2579i bk5: 0a 2572i bk6: 0a 2574i bk7: 0a 2576i bk8: 0a 2566i bk9: 24a 2582i bk10: 52a 2581i bk11: 0a 2579i bk12: 0a 2577i bk13: 0a 2574i bk14: 0a 2578i bk15: 0a 2573i 
dram_util_bins: 0 0 0 0 0 0 0 0 0 0
dram_eff_bins: 0 0 0 0 0 0 0 0 0 0
mrqq: max=16 avg=1.23613
Cache L2_bank_002:
MSHR contents
MSHR: tag=0x80004f80, atomic=0 1 entries : 0x2b16d88272a0 :  mf: uid=  1344, sid02:w15, part=2, addr=0x80004f80, load , size=128, unknown  status = IN_PARTITION_DRAM (1158), 

DRAM[2]: 16 bks, busW=4 BL=8 CL=12, tRRD=2 tCCD=6, tRCD=12 tRAS=28 tRP=12 tRC=40
n_cmd=2613 n_nop=2507 n_act=2 n_pre=0 n_req=52 n_rd=76 n_write=28 bw_util=0.0796
n_activity=571 dram_eff=0.3643
bk0: 0a 2593i bk1: 0a 2592i bk2: 0a 2579i bk3: 0a 2577i bk4: 0a 2579i bk5: 0a 2577i bk6: 0a 2575i bk7: 0a 2573i bk8: 0a 2582i bk9: 24a 2570i bk10: 52a 2563i bk11: 0a 2576i bk12: 0a 2569i bk13: 0a 2580i bk14: 0a 2578i bk15: 0a 2567i 
dram_util_bins: 0 0 0 0 0 0 0 0 0 0
dram_eff_bins: 0 0 0 0 0 0 0 0 0 0
mrqq: max=16 avg=1.31994
Cache L2_bank_003:
MSHR contents
MSHR: tag=0x80005580, atomic=0 1 entries : 0x2b16d8827000 :  mf: uid=  1343, sid03:w11, part=3, addr=0x80005580, load , size=128, unknown  status = IN_PARTITION_DRAM (1161), 

DRAM[3]: 16 bks, busW=4 BL=8 CL=12, tRRD=2 tCCD=6, tRCD=12 tRAS=28 tRP=12 tRC=40
n_cmd=2613 n_nop=2505 n_act=2 n_pre=0 n_req=54 n_rd=78 n_write=28 bw_util=0.08113
n_activity=583 dram_eff=0.3636
bk0: 0a 2583i bk1: 0a 2577i bk2: 0a 2579i bk3: 0a 2577i bk4: 0a 2579i bk5: 0a 2577i bk6: 0a 2573i bk7: 0a 2568i bk8: 0a 2569i bk9: 28a 2571i bk10: 50a 2568i bk11: 0a 2577i bk12: 0a 2577i bk13: 0a 2578i bk14: 0a 2585i bk15: 0a 2571i 
dram_util_bins: 0 0 0 0 0 0 0 0 0 0
dram_eff_bins: 0 0 0 0 0 0 0 0 0 0
mrqq: max=16 avg=1.44279
Cache L2_bank_004:
MSHR contents

DRAM[4]: 16 bks, busW=4 BL=8 CL=12, tRRD=2 tCCD=6, tRCD=12 tRAS=28 tRP=12 tRC=40
n_cmd=2613 n_nop=2511 n_act=2 n_pre=0 n_req=50 n_rd=76 n_write=24 bw_util=0.07654
n_activity=526 dram_eff=0.3802
bk0: 0a 2593i bk1: 0a 2592i bk2: 0a 2593i bk3: 0a 2592i bk4: 0a 2593i bk5: 0a 2592i bk6: 0a 2579i bk7: 0a 2576i bk8: 0a 2568i bk9: 28a 2561i bk10: 48a 2567i bk11: 0a 2565i bk12: 0a 2567i bk13: 0a 2576i bk14: 0a 2578i bk15: 0a 2573i 
dram_util_bins: 0 0 0 0 0 0 0 0 0 0
dram_eff_bins: 0 0 0 0 0 0 0 0 0 0
mrqq: max=16 avg=1.2013
Cache L2_bank_000:	Size = 131072 B (64 Set x 16-way x 128 byte line)
		Access = 50, Miss = 41 (0.82), PendingHit = 9 (0.18)
Cache L2_bank_001:	Size = 131072 B (64 Set x 16-way x 128 byte line)
		Access = 38, Miss = 38 (1), PendingHit = 0 (0)
Cache L2_bank_002:	Size = 131072 B (64 Set x 16-way x 128 byte line)
		Access = 38, Miss = 38 (1), PendingHit = 0 (0)
Cache L2_bank_003:	Size = 131072 B (64 Set x 16-way x 128 byte line)
		Access = 40, Miss = 40 (1), PendingHit = 0 (0)
Cache L2_bank_004:	Size = 131072 B (64 Set x 16-way x 128 byte line)
		Access = 38, Miss = 38 (1), PendingHit = 0 (0)
L2 Cache Total Miss Rate = 0.956

icnt_total_pkts_mem_to_simt=756
icnt_total_pkts_simt_to_mem=460

LD_mem_lat_dist  0 0 0 0 0 0 0 0 0 0 0 0 0 0 0 0 0 0 0 0 0 0 0 0 0 0 0
ST_mem_lat_dist  0 0 0 0 0 0 0 0 0 0 0 0 0 0 0 0 0 0 0 0 0 0 0 0 0 0 0
Traffic 0 Stat
%=================================
% Average latency = 5.07353
% Accepted packets = 0 at node 0 (avg = 0.00861326)
lat(1) = 5.07353;
thru(1,:) = [ 0 0 0 0 0 0 0 0 0 0 0 0 0 0 0.042205 0.037037 0.0404823 0.0413437 0.037037 0 0 0 0 ];
% latency change    = 1
% throughput change = 1
Traffic 1 Stat
%=================================
% Average latency = 14.0294
% Accepted packets = 0 at node 0 (avg = 0.0141557)
lat(2) = 14.0294;
thru(2,:) = [ 0 0.0813953 0.0813953 0.0813953 0.0813953 0 0 0 0 0 0 0 0 0 0 0 0 0 0 0 0 0 0 ];
% latency change    = 0.638365
% throughput change = 0.391534
----------------------------Interconnect-DETAILS---------------------------------=======Traffic[0]class0 ======
Traffic[0]class0Overall average latency = 5.07353 (1 samples)
Traffic[0]class0Overall average accepted rate = 0.00861326 (1 samples)
Traffic[0]class0Overall min accepted rate = 0 (1 samples)
traffic_manager/latency_stat_0_freq = [ 0 116 20 3 1 7 2 3 5 3 3 1 1 0 9 8 6 7 0 1 1 2 0 0 0 0 2 2 0 0 1 0 0 0 0 0 0 0 0 0 0 0 0 0 0 0 0 0 0 0 0 0 0 0 0 0 0 0 0 0 0 0 0 0 0 0 0 0 0 0 0 0 0 0 0 0 0 0 0 0 0 0 0 0 0 0 0 0 0 0 0 0 0 0 0 0 0 0 0 0 0 0 0 0 0 0 0 0 0 0 0 0 0 0 0 0 0 0 0 0 0 0 0 0 0 0 0 0 0 0 0 0 0 0 0 0 0 0 0 0 0 0 0 0 0 0 0 0 0 0 0 0 0 0 0 0 0 0 0 0 0 0 0 0 0 0 0 0 0 0 0 0 0 0 0 0 0 0 0 0 0 0 0 0 0 0 0 0 0 0 0 0 0 0 0 0 0 0 0 0 0 0 0 0 0 0 0 0 0 0 0 0 0 0 0 0 0 0 0 0 0 0 0 0 0 0 0 0 0 0 0 0 0 0 0 0 0 0 0 0 0 0 0 0 0 0 0 0 0 0 0 0 0 0 0 0 0 0 0 0 0 0 0 0 0 0 0 0 0 0 0 0 0 0 0 0 0 0 0 0 0 0 0 0 0 0 0 0 0 0 0 0 0 0 0 0 0 0 0 0 0 0 0 0 0 0 0 0 0 0 0 0 0 0 0 0 0 0 0 0 0 0 0 0 0 0 0 0 0 0 0 0 0 0 0 0 0 0 0 0 0 0 0 0 0 0 0 0 0 0 0 0 0 0 0 0 0 0 0 0 0 0 0 0 0 0 0 0 0 0 0 0 0 0 0 0 0 0 0 0 0 0 0 0 0 0 0 0 0 0 0 0 0 0 0 0 0 0 0 0 0 0 0 0 0 0 0 0 0 0 0 0 0 0 0 0 0 0 0 0 0 0 0 0 0 0 0 0 0 0 0 0 0 0 0 0 0 0 0 0 0 0 0 0 0 0 0 0 0 0 0 0 0 0 0 0 0 0 0 0 0 0 0 0 0 0 0 0 0 0 0 0 0 0 0 0 0 0 0 0 0 0 0 0 0 0 0 0 0 0 0 0 0 0 0 0 0 0 0 0 0 0 0 0 0 0 0 0 0 0 0 0 0 0 0 0 0 0 0 0 0 0 0 0 0 0 0 0 0 0 0 0 0 0 0 0 0 0 0 0 0 0 0 0 0 0 0 0 0 0 0 0 0 0 0 0 0 0 0 0 0 0 0 0 0 0 0 0 0 0 0 0 0 0 0 0 0 0 0 0 0 0 0 0 0 0 0 0 0 0 0 0 0 0 0 0 0 0 0 0 0 0 0 0 0 0 0 0 0 0 0 0 0 0 0 0 0 0 0 0 0 0 0 0 0 0 0 0 0 0 0 0 0 0 0 0 0 0 0 0 0 0 0 0 0 0 0 0 0 0 0 0 0 0 0 0 0 0 0 0 0 0 0 0 0 0 0 0 0 0 0 0 0 0 0 0 0 0 0 0 0 0 0 0 0 0 0 0 0 0 0 0 0 0 0 0 0 0 0 0 0 0 0 0 0 0 0 0 0 0 0 0 0 0 0 0 0 0 0 0 0 0 0 0 0 0 0 0 0 0 0 0 0 0 0 0 0 0 0 0 0 0 0 0 0 0 0 0 0 0 0 0 0 0 0 0 0 0 0 0 0 0 0 0 0 0 0 0 0 0 0 0 0 0 0 0 0 0 0 0 0 0 0 0 0 0 0 0 0 0 0 0 0 0 0 0 0 0 0 0 0 0 0 0 0 0 0 0 0 0 0 0 0 0 0 0 0 0 0 0 0 0 0 0 0 0 0 0 0 0 0 0 0 0 0 0 0 0 0 0 0 0 0 0 0 0 0 0 0 0 0 0 0 0 0 0 0 0 0 0 0 0 0 0 0 0 0 0 0 0 0 0 0 0 0 0 0 0 0 0 0 0 0 0 0 0 0 0 0 0 0 0 0 0 0 0 0 0 0 0 0 0 0 0 0 0 0 0 0 0 0 0 0 0 0 0 0 0 0 0 0 0 0 0 0 0 0 0 0 0 0 0 0 0 0 0 0 0 0 0 0 0 0 0 0 0 0 0 0 0 0 0 0 0 0 0 0 0 0 0 0 0 0 0 0 0 0 0 0 0 0 0 0 0 0 0 0 0 0 0 0 0 0 0 0 0 0 0 0 0 0 0 0 0 0 0 0 0 0 0 ];
Traffic[0]class1Average hops = 1 (204 samples)
traffic_manager/hop_stats_freq = [ 0 204 0 0 0 0 0 0 0 0 0 0 0 0 0 0 0 0 0 0 ];
=======Traffic[1]class0 ======
Traffic[1]class0Overall average latency = 14.0294 (1 samples)
Traffic[1]class0Overall average accepted rate = 0.0141557 (1 samples)
Traffic[1]class0Overall min accepted rate = 0 (1 samples)
traffic_manager/latency_stat_0_freq = [ 0 64 0 1 1 9 3 2 4 5 2 5 3 1 4 1 20 0 2 1 2 19 1 2 3 1 16 0 0 0 1 20 0 1 1 1 6 0 1 0 0 1 0 0 0 0 0 0 0 0 0 0 0 0 0 0 0 0 0 0 0 0 0 0 0 0 0 0 0 0 0 0 0 0 0 0 0 0 0 0 0 0 0 0 0 0 0 0 0 0 0 0 0 0 0 0 0 0 0 0 0 0 0 0 0 0 0 0 0 0 0 0 0 0 0 0 0 0 0 0 0 0 0 0 0 0 0 0 0 0 0 0 0 0 0 0 0 0 0 0 0 0 0 0 0 0 0 0 0 0 0 0 0 0 0 0 0 0 0 0 0 0 0 0 0 0 0 0 0 0 0 0 0 0 0 0 0 0 0 0 0 0 0 0 0 0 0 0 0 0 0 0 0 0 0 0 0 0 0 0 0 0 0 0 0 0 0 0 0 0 0 0 0 0 0 0 0 0 0 0 0 0 0 0 0 0 0 0 0 0 0 0 0 0 0 0 0 0 0 0 0 0 0 0 0 0 0 0 0 0 0 0 0 0 0 0 0 0 0 0 0 0 0 0 0 0 0 0 0 0 0 0 0 0 0 0 0 0 0 0 0 0 0 0 0 0 0 0 0 0 0 0 0 0 0 0 0 0 0 0 0 0 0 0 0 0 0 0 0 0 0 0 0 0 0 0 0 0 0 0 0 0 0 0 0 0 0 0 0 0 0 0 0 0 0 0 0 0 0 0 0 0 0 0 0 0 0 0 0 0 0 0 0 0 0 0 0 0 0 0 0 0 0 0 0 0 0 0 0 0 0 0 0 0 0 0 0 0 0 0 0 0 0 0 0 0 0 0 0 0 0 0 0 0 0 0 0 0 0 0 0 0 0 0 0 0 0 0 0 0 0 0 0 0 0 0 0 0 0 0 0 0 0 0 0 0 0 0 0 0 0 0 0 0 0 0 0 0 0 0 0 0 0 0 0 0 0 0 0 0 0 0 0 0 0 0 0 0 0 0 0 0 0 0 0 0 0 0 0 0 0 0 0 0 0 0 0 0 0 0 0 0 0 0 0 0 0 0 0 0 0 0 0 0 0 0 0 0 0 0 0 0 0 0 0 0 0 0 0 0 0 0 0 0 0 0 0 0 0 0 0 0 0 0 0 0 0 0 0 0 0 0 0 0 0 0 0 0 0 0 0 0 0 0 0 0 0 0 0 0 0 0 0 0 0 0 0 0 0 0 0 0 0 0 0 0 0 0 0 0 0 0 0 0 0 0 0 0 0 0 0 0 0 0 0 0 0 0 0 0 0 0 0 0 0 0 0 0 0 0 0 0 0 0 0 0 0 0 0 0 0 0 0 0 0 0 0 0 0 0 0 0 0 0 0 0 0 0 0 0 0 0 0 0 0 0 0 0 0 0 0 0 0 0 0 0 0 0 0 0 0 0 0 0 0 0 0 0 0 0 0 0 0 0 0 0 0 0 0 0 0 0 0 0 0 0 0 0 0 0 0 0 0 0 0 0 0 0 0 0 0 0 0 0 0 0 0 0 0 0 0 0 0 0 0 0 0 0 0 0 0 0 0 0 0 0 0 0 0 0 0 0 0 0 0 0 0 0 0 0 0 0 0 0 0 0 0 0 0 0 0 0 0 0 0 0 0 0 0 0 0 0 0 0 0 0 0 0 0 0 0 0 0 0 0 0 0 0 0 0 0 0 0 0 0 0 0 0 0 0 0 0 0 0 0 0 0 0 0 0 0 0 0 0 0 0 0 0 0 0 0 0 0 0 0 0 0 0 0 0 0 0 0 0 0 0 0 0 0 0 0 0 0 0 0 0 0 0 0 0 0 0 0 0 0 0 0 0 0 0 0 0 0 0 0 0 0 0 0 0 0 0 0 0 0 0 0 0 0 0 0 0 0 0 0 0 0 0 0 0 0 0 0 0 0 0 0 0 0 0 0 0 0 0 0 0 0 0 0 0 0 0 0 0 0 0 0 0 0 0 0 0 0 0 0 0 0 0 0 0 0 0 0 0 0 0 0 0 0 0 0 0 0 0 0 0 0 0 0 0 0 0 0 0 0 0 0 0 0 0 0 0 0 0 0 0 0 0 0 0 0 0 0 0 0 0 0 0 0 0 0 0 0 0 0 0 0 0 0 0 0 0 0 0 0 0 0 0 0 0 0 0 0 0 0 0 0 0 0 0 0 0 0 0 0 0 0 0 0 0 ];
Traffic[1]class1Average hops = 1 (204 samples)
traffic_manager/hop_stats_freq = [ 0 204 0 0 0 0 0 0 0 0 0 0 0 0 0 0 0 0 0 0 ];
----------------------------END-of-Interconnect-DETAILS-------------------------

gpgpu_simulation_time = 0 days, 0 hrs, 0 min, 1 sec (1 sec)
gpgpu_simulation_rate = 40960 (inst/sec)
gpgpu_simulation_rate = 1162 (cycle/sec)
GPGPU-Sim: synchronize waiting for inactive GPU simulation
GPGPU-Sim API: Stream Manager State
GPGPU-Sim: detected inactive GPU simulation thread
GPGPU-Sim: synchronize waiting for inactive GPU simulation
GPGPU-Sim API: Stream Manager State
GPGPU-Sim: detected inactive GPU simulation thread

kernel '_Z12ComputeQ_GPUiiPfS_S_S_S_' transfer to GPU hardware scheduler
kernel_name = _Z12ComputeQ_GPUiiPfS_S_S_S_ 
kernel_launch_uid = 2 
gpu_sim_cycle = 47476650
gpu_sim_insn = 26720086245
gpu_ipc =     562.8048
gpu_tot_sim_cycle = 47477812
gpu_tot_sim_insn = 26720127205
gpu_tot_ipc =     562.7919
gpu_tot_issued_cta = 0
gpu_stall_dramfull = 4242
gpu_stall_icnt2sh    = 16126
gpu_total_sim_rate=488235
Cache L1D_000:	Size = 16384 B (32 Set x 4-way x 128 byte line)
		Access = 2880, Miss = 2880 (1), PendingHit = 0 (0)
Cache L1D_001:	Size = 16384 B (32 Set x 4-way x 128 byte line)
		Access = 2912, Miss = 2912 (1), PendingHit = 0 (0)
Cache L1D_002:	Size = 16384 B (32 Set x 4-way x 128 byte line)
		Access = 2912, Miss = 2912 (1), PendingHit = 0 (0)
Cache L1D_003:	Size = 16384 B (32 Set x 4-way x 128 byte line)
		Access = 2912, Miss = 2912 (1), PendingHit = 0 (0)
Cache L1D_004:	Size = 16384 B (32 Set x 4-way x 128 byte line)
		Access = 2912, Miss = 2912 (1), PendingHit = 0 (0)
Cache L1D_005:	Size = 16384 B (32 Set x 4-way x 128 byte line)
		Access = 2880, Miss = 2880 (1), PendingHit = 0 (0)
Cache L1D_006:	Size = 16384 B (32 Set x 4-way x 128 byte line)
		Access = 2880, Miss = 2880 (1), PendingHit = 0 (0)
Cache L1D_007:	Size = 16384 B (32 Set x 4-way x 128 byte line)
		Access = 2880, Miss = 2880 (1), PendingHit = 0 (0)
Cache L1D_008:	Size = 16384 B (32 Set x 4-way x 128 byte line)
		Access = 2880, Miss = 2880 (1), PendingHit = 0 (0)
Cache L1D_009:	Size = 16384 B (32 Set x 4-way x 128 byte line)
		Access = 3040, Miss = 3040 (1), PendingHit = 0 (0)
Cache L1D_010:	Size = 16384 B (32 Set x 4-way x 128 byte line)
		Access = 3040, Miss = 3040 (1), PendingHit = 0 (0)
Cache L1D_011:	Size = 16384 B (32 Set x 4-way x 128 byte line)
		Access = 3040, Miss = 3040 (1), PendingHit = 0 (0)
Cache L1D_012:	Size = 16384 B (32 Set x 4-way x 128 byte line)
		Access = 2880, Miss = 2880 (1), PendingHit = 0 (0)
Cache L1D_013:	Size = 16384 B (32 Set x 4-way x 128 byte line)
		Access = 3040, Miss = 3040 (1), PendingHit = 0 (0)
total_dl1_misses=41088
total_dl1_accesses=41088
total_dl1_miss_rate= 1.000000
Shader 0 dynamic_warp_id issue ditsribution:
dynamic_warp_id:
0, 1, 2, 3, 4, 5, 6, 7, 8, 9, 10, 11, 12, 13, 14, 15, 16, 17, 18, 19, 20, 21, 22, 23, 24, 25, 26, 27, 28, 29, 30, 31, 32, 33, 34, 35, 36, 37, 38, 39, 40, 41, 42, 43, 44, 45, 46, 47, 48, 49, 50, 51, 52, 53, 54, 55, 56, 57, 58, 59, 60, 61, 62, 63, 64, 65, 66, 67, 68, 69, 70, 71, 72, 73, 74, 75, 76, 77, 78, 79, 80, 81, 82, 83, 84, 85, 86, 87, 88, 89, 90, 91, 92, 93, 94, 95, 96, 97, 98, 99, 100, 101, 102, 103, 104, 105, 106, 107, 108, 109, 110, 111, 112, 113, 114, 115, 116, 117, 118, 119, 120, 121, 122, 123, 124, 125, 126, 127, 128, 129, 130, 131, 132, 133, 134, 135, 136, 137, 138, 139, 140, 141, 142, 143, 144, 145, 146, 147, 148, 149, 150, 151, 152, 153, 154, 155, 156, 157, 158, 159, 160, 161, 162, 163, 164, 165, 166, 167, 168, 169, 170, 171, 172, 173, 174, 175, 176, 177, 178, 179, 180, 181, 182, 183, 184, 185, 186, 187, 188, 189, 190, 191, 192, 193, 194, 195, 196, 197, 198, 199, 200, 201, 202, 203, 204, 205, 206, 207, 208, 209, 210, 211, 212, 213, 214, 215, 216, 217, 218, 219, 220, 221, 222, 223, 224, 225, 226, 227, 228, 229, 230, 231, 232, 233, 234, 235, 236, 237, 238, 239, 240, 241, 242, 243, 244, 245, 246, 247, 248, 249, 250, 251, 252, 253, 254, 255, 256, 257, 258, 259, 260, 261, 262, 263, 264, 265, 266, 267, 268, 269, 270, 271, 272, 273, 274, 275, 276, 277, 278, 279, 280, 281, 282, 283, 284, 285, 286, 287, 288, 289, 290, 291, 292, 293, 294, 295, 296, 297, 298, 299, 300, 301, 302, 303, 304, 305, 306, 307, 308, 309, 310, 311, 312, 313, 314, 315, 316, 317, 318, 319, 320, 321, 322, 323, 324, 325, 326, 327, 328, 329, 330, 331, 332, 333, 334, 335, 336, 337, 338, 339, 340, 341, 342, 343, 344, 345, 346, 347, 348, 349, 350, 351, 352, 353, 354, 355, 356, 357, 358, 359, 360, 361, 362, 363, 364, 365, 366, 367, 368, 369, 370, 371, 372, 373, 374, 375, 376, 377, 378, 379, 380, 381, 382, 383, 384, 385, 386, 387, 388, 389, 390, 391, 392, 393, 394, 395, 396, 397, 398, 399, 400, 401, 402, 403, 404, 405, 406, 407, 408, 409, 410, 411, 412, 413, 414, 415, 416, 417, 418, 419, 420, 421, 422, 423, 424, 425, 426, 427, 428, 429, 430, 431, 432, 433, 434, 435, 436, 437, 438, 439, 440, 441, 442, 443, 444, 445, 446, 447, 448, 449, 450, 451, 452, 453, 454, 455, 456, 457, 458, 459, 460, 461, 462, 463, 464, 465, 466, 467, 468, 469, 470, 471, 472, 473, 474, 475, 476, 477, 478, 479, 480, 481, 482, 483, 484, 485, 486, 487, 488, 489, 490, 491, 492, 493, 494, 495, 496, 497, 498, 499, 500, 501, 502, 503, 504, 505, 506, 507, 508, 509, 510, 511, 512, 513, 514, 515, 516, 517, 518, 519, 520, 521, 522, 523, 524, 525, 526, 527, 528, 529, 530, 531, 532, 533, 534, 535, 536, 537, 538, 539, 540, 541, 542, 543, 544, 545, 546, 547, 548, 549, 550, 551, 552, 553, 554, 555, 556, 557, 558, 559, 560, 561, 562, 563, 564, 565, 566, 567, 568, 569, 570, 571, 572, 573, 574, 575, 
distro:
117309, 117343, 117309, 117377, 117309, 117377, 117275, 117411, 120539, 120522, 120539, 120522, 120539, 120522, 120539, 120522, 120539, 120488, 120539, 120488, 120539, 120488, 120539, 120488, 120539, 120488, 120539, 120488, 120539, 120488, 120539, 120488, 120539, 120539, 120539, 120539, 120539, 120539, 120539, 120539, 120539, 120539, 120539, 120539, 120539, 120539, 120539, 120539, 120539, 120539, 120539, 120539, 120539, 120539, 120522, 120539, 120522, 120539, 120522, 120539, 120522, 120539, 120522, 120539, 120539, 120488, 120539, 120488, 120539, 120488, 120539, 120488, 120539, 120488, 120539, 120488, 120539, 120488, 120539, 120488, 120539, 120522, 120539, 120522, 120539, 120522, 120539, 120522, 120539, 120522, 120539, 120522, 120539, 120522, 120539, 120522, 120539, 120539, 120539, 120539, 120539, 120539, 120539, 120539, 120539, 120539, 120539, 120539, 120539, 120539, 120539, 120539, 120539, 120539, 120539, 120539, 120522, 120539, 120522, 120539, 120522, 120539, 120522, 120539, 120522, 120539, 120522, 120539, 120539, 120488, 120539, 120488, 120539, 120488, 120539, 120488, 120539, 120488, 120539, 120488, 120539, 120522, 120539, 120522, 120539, 120522, 120539, 120522, 120539, 120522, 120539, 120522, 120539, 120522, 120539, 120522, 120539, 120522, 120539, 120539, 120522, 120539, 120522, 120539, 120522, 120539, 120522, 120539, 120522, 120539, 120522, 120539, 120522, 120539, 120522, 120539, 120522, 120539, 120488, 120539, 120488, 120539, 120488, 120539, 120488, 120539, 120488, 120539, 120488, 120539, 120488, 120539, 120539, 120471, 120539, 120471, 120539, 120488, 120539, 120488, 120539, 120488, 120539, 120488, 120539, 120488, 120539, 120488, 120539, 120488, 120539, 120488, 120539, 120488, 120539, 120488, 120539, 120488, 120539, 120488, 120539, 120488, 120539, 120488, 120539, 120488, 120539, 120488, 120539, 120488, 120539, 120488, 120539, 120522, 120539, 120522, 120539, 120522, 120539, 120522, 120539, 120522, 120539, 120522, 120539, 120522, 120539, 120522, 120539, 120522, 120539, 120539, 120539, 120539, 120539, 120539, 120539, 120471, 120539, 120488, 120539, 120488, 120539, 120488, 120539, 120488, 120539, 120488, 120539, 120488, 120539, 120488, 120539, 120488, 120539, 120488, 120539, 120488, 120539, 120488, 120539, 120488, 120539, 120488, 120539, 120488, 120539, 120488, 120539, 120471, 120539, 120488, 120539, 120488, 120539, 120488, 120539, 120488, 120539, 120488, 120539, 120488, 120539, 120488, 120539, 120488, 120539, 120488, 120539, 120488, 120539, 120488, 120539, 120488, 120539, 120488, 120539, 120488, 120539, 120488, 120539, 120539, 120539, 120539, 120539, 120539, 120539, 120539, 120539, 120539, 120539, 120539, 120539, 120539, 120522, 120539, 120522, 120539, 120522, 120539, 120522, 120539, 120522, 120539, 120522, 120539, 120522, 120539, 120522, 120539, 120522, 120539, 120539, 120539, 120539, 120539, 120539, 120539, 120539, 120539, 120539, 120539, 120539, 120539, 120539, 120539, 120522, 120539, 120522, 120539, 120522, 120539, 120522, 120539, 120522, 120539, 120522, 120539, 120522, 120539, 120522, 120539, 120522, 120539, 120539, 120522, 120539, 120522, 120539, 120522, 120539, 120522, 120539, 120522, 120539, 120522, 120539, 120522, 120539, 120522, 120539, 120522, 120539, 120522, 120539, 120522, 120539, 120539, 120539, 120539, 120539, 120539, 120539, 120539, 120539, 120539, 120522, 120539, 120522, 120539, 120488, 120539, 120488, 120539, 120488, 120539, 120488, 120539, 120488, 120539, 120488, 120539, 120488, 120539, 120488, 120539, 120488, 120539, 120488, 120539, 120488, 120539, 120488, 120539, 120488, 120539, 120488, 120539, 120539, 120522, 120539, 120522, 120539, 120522, 120539, 120522, 120539, 120522, 120539, 120522, 120539, 120522, 120539, 120522, 120539, 120522, 120539, 120522, 120539, 120539, 120539, 120539, 120539, 120539, 120539, 120539, 120539, 120539, 120539, 120539, 120488, 120539, 120488, 120539, 120488, 120539, 120488, 120539, 120488, 120539, 120488, 120539, 120488, 120539, 120488, 120539, 120488, 120539, 120488, 120539, 120488, 120539, 120488, 120539, 120488, 120539, 120488, 120539, 120488, 120539, 120488, 120539, 120539, 120488, 120539, 120488, 120539, 120488, 120539, 120488, 120539, 120488, 120539, 120488, 120539, 120488, 120539, 120488, 120539, 120488, 120539, 120488, 120539, 120488, 120539, 120488, 120539, 120522, 120539, 120522, 120539, 120522, 120539, 120522, 120539, 120539, 120539, 120539, 120539, 120539, 120539, 120539, 120522, 120539, 120522, 120539, 120522, 120539, 120522, 120539, 120522, 120539, 120522, 120539, 120522, 120539, 120522, 120539, 120522, 120539, 120522, 120539, 120488, 120539, 120488, 120539, 
gpgpu_n_tot_thrd_icount = 31585304576
gpgpu_n_tot_w_icount = 987040768
gpgpu_n_icache_hits = 551917810
gpgpu_n_icache_misses = 36541742
gpgpu_n_l1dcache_read_hits = 0
gpgpu_n_l1dcache_read_misses = 41088
gpgpu_n_l1dcache_write_accesses = 16448
gpgpu_n_l1dcache_wirte_misses = 90
gpgpu_n_tcache_hits = 0
gpgpu_n_tcache_misses = 0
gpgpu_n_ccache_hits = 35708801
gpgpu_n_ccache_misses = 2097535
gpgpu_n_stall_shd_mem = 2718028
gpgpu_n_mem_read_local = 0
gpgpu_n_mem_write_local = 0
gpgpu_n_mem_read_global = 41088
gpgpu_n_mem_write_global = 16448
gpgpu_n_mem_texture = 0
gpgpu_n_mem_const = 65550
gpgpu_n_load_insn  = 2629632
gpgpu_n_store_insn = 1052672
gpgpu_n_shmem_insn = 0
gpgpu_n_tex_insn = 0
gpgpu_n_const_mem_insn = -2147483648
gpgpu_n_param_mem_insn = 272121856
gpgpu_n_shmem_bkconflict = 0
gpgpu_n_cache_bkconflict = 0
gpgpu_n_intrawarp_mshr_merge = 0
gpgpu_n_cmem_portconflict = 2605426
gpgpu_stall_shd_mem[c_mem][bk_conf] = 2605426
gpgpu_stall_shd_mem[c_mem][mshr_rc] = 0
gpgpu_stall_shd_mem[c_mem][icnt_rc] = 0
gpgpu_stall_shd_mem[t_mem][mshr_rc] = 0
gpgpu_stall_shd_mem[t_mem][icnt_rc] = 0
gpgpu_stall_shd_mem[s_mem][bk_conf] = 0
gpgpu_stall_shd_mem[gl_mem][bk_conf] = 0
gpgpu_stall_shd_mem[gl_mem][coal_stall] = 112602
gpgpu_stall_shd_mem[g_mem_ld][mshr_rc] = 0
gpgpu_stall_shd_mem[g_mem_ld][icnt_rc] = 0
gpgpu_stall_shd_mem[g_mem_ld][wb_icnt_rc] = 0
gpgpu_stall_shd_mem[g_mem_ld][wb_rsrv_fail] = 0
gpgpu_stall_shd_mem[g_mem_st][mshr_rc] = 0
gpgpu_stall_shd_mem[g_mem_st][icnt_rc] = 0
gpgpu_stall_shd_mem[g_mem_st][wb_icnt_rc] = 0
gpgpu_stall_shd_mem[g_mem_st][wb_rsrv_fail] = 0
gpgpu_stall_shd_mem[l_mem_ld][mshr_rc] = 0
gpgpu_stall_shd_mem[l_mem_ld][icnt_rc] = 0
gpgpu_stall_shd_mem[l_mem_ld][wb_icnt_rc] = 0
gpgpu_stall_shd_mem[l_mem_ld][wb_rsrv_fail] = 0
gpgpu_stall_shd_mem[l_mem_st][mshr_rc] = 0
gpgpu_stall_shd_mem[l_mem_st][icnt_rc] = 0
gpgpu_stall_shd_mem[l_mem_ld][wb_icnt_rc] = 0
gpgpu_stall_shd_mem[l_mem_ld][wb_rsrv_fail] = 0
gpu_reg_bank_conflict_stalls = 0
Warp Occupancy Distribution:
Stall:129407887	W0_Idle:124929153	W0_Scoreboard:38179616	W1:66515	W2:96152	W3:150841	W4:147101	W5:104499	W6:76942	W7:91562	W8:114631	W9:210324	W10:1724735	W11:3905291	W12:3419210	W13:6314514	W14:17239139	W15:54317992	W16:102851088	W17:54317992	W18:17239139	W19:6314514	W20:3419210	W21:3905291	W22:1724735	W23:210324	W24:114631	W25:91562	W26:76942	W27:104499	W28:147101	W29:150841	W30:96152	W31:45577	W32:708251722
maxmrqlatency = 104 
maxdqlatency = 0 
maxmflatency = 469 
averagemflatency = 117 
max_icnt2mem_latency = 231 
max_icnt2sh_latency = 47477811 
mrq_lat_table:50638 	521 	829 	2597 	474 	160 	49 	0 	0 	0 	0 	0 	0 	0 	0 	0 	0 	0 	0 	0 	0 	0 	0 	0 	0 	0 	0 	0 	0 	0 	0 	0 	
dq_lat_table:0 	0 	0 	0 	0 	0 	0 	0 	0 	0 	0 	0 	0 	0 	0 	0 	0 	0 	0 	0 	0 	0 	0 	0 	0 	0 	0 	0 	0 	0 	0 	0 	
mf_lat_table:0 	0 	0 	0 	0 	0 	81777 	39663 	1646 	0 	0 	0 	0 	0 	0 	0 	0 	0 	0 	0 	0 	0 	0 	0 	0 	0 	0 	0 	0 	0 	0 	0 	
icnt2mem_lat_table:2082258 	120297 	8003 	5492 	3615 	225 	766 	410 	0 	0 	0 	0 	0 	0 	0 	0 	0 	0 	0 	0 	0 	0 	0 	0 	
icnt2sh_lat_table:0 	80837 	13214 	9738 	2837 	12 	0 	0 	0 	15 	49 	0 	0 	0 	0 	0 	0 	0 	0 	0 	0 	896 	1792 	2688 	
mf_lat_pw_table:6272 	4736 	0 	0 	0 	0 	46681 	569 	3 	0 	0 	0 	0 	0 	0 	0 	0 	0 	0 	0 	0 	0 	0 	0 	0 	0 	0 	0 	0 	0 	0 	0 	
maximum concurrent accesses to same row:
dram[0]:        32        32        32        32        32        32        32        32        32        32        44        32        32        32        32        32 
dram[1]:        32        32        32        32        32        32        32        32        32        32        44        32        32        32        32        32 
dram[2]:        32        32        32        32        32        32        32        32        32        32        46        32        32        32        32        32 
dram[3]:        32        32        32        32        32        32        32        32        32        32        46        32        32        32        32        32 
dram[4]:        32        32        32        32        32        32        32        32        32        32        44        32        32        32        32        32 
maximum service time to same row:
dram[0]:   4985335   4978990   4979102   4980432   4964471   4973034   4968750   4964702   4977645   4969873   4965408   4978027   4966865   4986221   4975281   4965706 
dram[1]:   4985337   4978992   4979101   4980433   4964389   4973035   4968748   4964700   4977643   4969875   4965409   4978026   4966865   4986299   4975281   4965708 
dram[2]:   4985337   4978976   4979099   4980418   4964390   4973108   4968747   4964699   4977642   4969872   4965392   4978027   4966931   4986222   4975343   4965697 
dram[3]:   4985337   4978992   4979113   4980436   4964392   4973109   4968723   4964691   4977639   4969872   4965415   4977964   4966980   4986219   4975360   4965708 
dram[4]:   4985339   4978985   4979118   4980497   4964411   4973114   4968722   4964691   4977635   4969821   4965422   4977976   4966849   4986217   4975363   4965706 
average row accesses per activate:
dram[0]: 29.608696 30.086956 23.172413 25.840000 24.370371 23.172413 17.684210 18.486486 22.000000 15.911111 21.823530 23.466667 32.000000 22.000000 32.000000 28.833334 
dram[1]: 28.375000 30.086956 23.172413 25.840000 23.500000 23.172413 19.764706 20.117647 22.000000 16.651163 19.526316 25.142857 32.000000 23.466667 29.333334 28.833334 
dram[2]: 24.607143 30.086956 20.363636 25.920000 25.384615 23.172413 19.764706 18.000000 19.555555 16.651163 18.600000 23.466667 32.000000 22.000000 29.333334 28.833334 
dram[3]: 28.833334 30.000000 21.677420 25.840000 23.571428 26.879999 18.666666 19.055555 19.555555 15.276596 18.146341 23.466667 32.000000 22.000000 29.333334 31.363636 
dram[4]: 28.541666 30.000000 32.000000 25.840000 23.571428 24.888889 21.000000 19.055555 25.142857 15.955556 26.428572 23.466667 32.000000 20.705883 32.000000 28.750000 
average row locality = 55268/2357 = 23.448452
number of total memory accesses made:
dram[0]:         0         0         0         0         0         0         0         0         0         0         0         0         0         0         0         0 
dram[1]:         0         0         0         0         0         0         0         0         0         0         0         0         0         0         0         0 
dram[2]:         0         0         0         0         0         0         0         0         0         0         0         0         0         0         0         0 
dram[3]:         0         0         0         0         0         0         0         0         0         0         0         0         0         0         0         0 
dram[4]:         0         0         0         0         0         0         0         0         0         0         0         0         0         0         0         0 
total accesses: 0
min_bank_accesses = 0!
min_chip_accesses = 0!
number of total read accesses:
dram[0]:       521       532       512       512       512       512       512       512       512       524       538       512       512       512       512       512 
dram[1]:       520       532       512       512       512       512       512       512       512       524       538       512       512       512       512       512 
dram[2]:       526       532       512       512       512       512       512       512       512       524       538       512       512       512       512       512 
dram[3]:       527       530       512       512       512       512       512       512       512       526       538       512       512       512       512       512 
dram[4]:       523       530       512       512       512       512       512       512       512       526       536       512       512       512       512       512 
total reads: 41305
bank skew: 538/512 = 1.05
chip skew: 8265/8258 = 1.00
number of total write accesses:
dram[0]:       160       160       160       134       146       160       160       172       192       192       204       192       192       192       192       180 
dram[1]:       161       160       160       134       146       160       160       172       192       192       204       192       192       192       192       180 
dram[2]:       163       160       160       136       148       160       160       172       192       192       206       192       192       192       192       180 
dram[3]:       165       160       160       134       148       160       160       174       192       192       206       192       192       192       192       178 
dram[4]:       162       160       160       134       148       160       160       174       192       192       204       192       192       192       192       178 
total reads: 13963
bank skew: 206/134 = 1.54
chip skew: 2797/2788 = 1.00
average mf latency per bank:
dram[0]:        550      1430       162       168       164       165       166       161       156       156       152       149       150       150       156       158
dram[1]:        548      1431       163       169       166       167       167       161       158       158       153       150       152       151       157       160
dram[2]:        543      1433       164       170       167       169       169       162       160       160       153       149       151       151       156       159
dram[3]:        538      1306       161       167       164       165       166       160       156       156       152       149       150       149       154       157
dram[4]:        673      1306       160       168       164       165       165       159       156       156       151       149       150       150       154       157
maximum mf latency per bank:
dram[0]:        393       391       388       376       390       368       370       350       327       330       312       271       282       284       390       436
dram[1]:        406       405       446       428       393       432       418       398       384       379       350       322       331       340       404       443
dram[2]:        391       422       469       456       450       441       421       460       422       434       411       266       325       338       402       414
dram[3]:        333       334       375       365       336       358       352       341       303       323       313       246       257       273       339       368
dram[4]:        321       351       376       360       366       362       387       339       343       317       308       261       266       280       339       381

Number of Memory Banks Accessed per Memory Operation per Warp (from 0):
0	0	0	0	0	0	0	0	0	0	0	0	0	0	0	0	0	0	0	0	0	0	0	0	0	0	0	0	0	0	0	0	0	0	0	0	0	0	0	0	0	0	0	0	0	0	0	0	0	0	0	0	0	0	0	0	0	0	0	0	0	0	0	0	0	0	0	0	0	0	0	0	0	0	0	0	0	0	0	0	
Average # of Memory Banks Accessed per Memory Operation per Warp=-nan

position of mrq chosen
0	0	0	0	0	0	0	0	0	0	0	0	0	0	0	0	

average position of mrq chosen = -nan
gpgpu_l2_write_miss = 0
gpgpu_l2_write_access = 0
gpgpu_l2_read_miss = 0
gpgpu_l2_read_access = 0
Cache L2_bank_000:
MSHR contents

DRAM[0]: 16 bks, busW=4 BL=8 CL=12, tRRD=2 tCCD=6, tRCD=12 tRAS=28 tRP=12 tRC=40
n_cmd=106825074 n_nop=106802050 n_act=473 n_pre=457 n_req=11047 n_rd=16518 n_write=5576 bw_util=0.0004136
n_activity=147727 dram_eff=0.2991
bk0: 1042a 106820078i bk1: 1064a 106819700i bk2: 1024a 106820086i bk3: 1024a 106819332i bk4: 1024a 106820068i bk5: 1024a 106819950i bk6: 1024a 106820139i bk7: 1024a 106820141i bk8: 1024a 106819933i bk9: 1048a 106819063i bk10: 1076a 106819559i bk11: 1024a 106818699i bk12: 1024a 106818847i bk13: 1024a 106817862i bk14: 1024a 106817379i bk15: 1024a 106810542i 
dram_util_bins: 0 0 0 0 0 0 0 0 0 0
dram_eff_bins: 0 0 0 0 0 0 0 0 0 0
mrqq: max=16 avg=0.000210344
Cache L2_bank_001:
MSHR contents

DRAM[1]: 16 bks, busW=4 BL=8 CL=12, tRRD=2 tCCD=6, tRCD=12 tRAS=28 tRP=12 tRC=40
n_cmd=106825074 n_nop=106802060 n_act=468 n_pre=452 n_req=11047 n_rd=16516 n_write=5578 bw_util=0.0004136
n_activity=148044 dram_eff=0.2985
bk0: 1040a 106819879i bk1: 1064a 106819765i bk2: 1024a 106820287i bk3: 1024a 106819309i bk4: 1024a 106820014i bk5: 1024a 106819439i bk6: 1024a 106819818i bk7: 1024a 106819889i bk8: 1024a 106819700i bk9: 1048a 106819933i bk10: 1076a 106818981i bk11: 1024a 106818634i bk12: 1024a 106819279i bk13: 1024a 106817460i bk14: 1024a 106817845i bk15: 1024a 106810221i 
dram_util_bins: 0 0 0 0 0 0 0 0 0 0
dram_eff_bins: 0 0 0 0 0 0 0 0 0 0
mrqq: max=16 avg=0.000213826
Cache L2_bank_002:
MSHR contents

DRAM[2]: 16 bks, busW=4 BL=8 CL=12, tRRD=2 tCCD=6, tRCD=12 tRAS=28 tRP=12 tRC=40
n_cmd=106825074 n_nop=106801994 n_act=487 n_pre=471 n_req=11061 n_rd=16528 n_write=5594 bw_util=0.0004142
n_activity=148129 dram_eff=0.2987
bk0: 1052a 106820332i bk1: 1064a 106819754i bk2: 1024a 106819870i bk3: 1024a 106819970i bk4: 1024a 106819864i bk5: 1024a 106819468i bk6: 1024a 106819838i bk7: 1024a 106819968i bk8: 1024a 106819809i bk9: 1048a 106819355i bk10: 1076a 106819535i bk11: 1024a 106818584i bk12: 1024a 106818750i bk13: 1024a 106817841i bk14: 1024a 106817294i bk15: 1024a 106810226i 
dram_util_bins: 0 0 0 0 0 0 0 0 0 0
dram_eff_bins: 0 0 0 0 0 0 0 0 0 0
mrqq: max=16 avg=0.000231987
Cache L2_bank_003:
MSHR contents

DRAM[3]: 16 bks, busW=4 BL=8 CL=12, tRRD=2 tCCD=6, tRCD=12 tRAS=28 tRP=12 tRC=40
n_cmd=106825074 n_nop=106802002 n_act=482 n_pre=466 n_req=11062 n_rd=16530 n_write=5594 bw_util=0.0004142
n_activity=148354 dram_eff=0.2983
bk0: 1054a 106820197i bk1: 1060a 106820028i bk2: 1024a 106820090i bk3: 1024a 106819280i bk4: 1024a 106819848i bk5: 1024a 106819899i bk6: 1024a 106819801i bk7: 1024a 106820038i bk8: 1024a 106820083i bk9: 1052a 106819770i bk10: 1076a 106819779i bk11: 1024a 106818615i bk12: 1024a 106818798i bk13: 1024a 106817797i bk14: 1024a 106816910i bk15: 1024a 106809768i 
dram_util_bins: 0 0 0 0 0 0 0 0 0 0
dram_eff_bins: 0 0 0 0 0 0 0 0 0 0
mrqq: max=16 avg=0.000240674
Cache L2_bank_004:
MSHR contents

DRAM[4]: 16 bks, busW=4 BL=8 CL=12, tRRD=2 tCCD=6, tRCD=12 tRAS=28 tRP=12 tRC=40
n_cmd=106825074 n_nop=106802090 n_act=449 n_pre=433 n_req=11051 n_rd=16518 n_write=5584 bw_util=0.0004138
n_activity=146986 dram_eff=0.3007
bk0: 1046a 106820127i bk1: 1060a 106820173i bk2: 1024a 106820094i bk3: 1024a 106819660i bk4: 1024a 106820145i bk5: 1024a 106819714i bk6: 1024a 106820404i bk7: 1024a 106819245i bk8: 1024a 106820021i bk9: 1052a 106818804i bk10: 1072a 106819876i bk11: 1024a 106818427i bk12: 1024a 106818557i bk13: 1024a 106817978i bk14: 1024a 106817180i bk15: 1024a 106811039i 
dram_util_bins: 0 0 0 0 0 0 0 0 0 0
dram_eff_bins: 0 0 0 0 0 0 0 0 0 0
mrqq: max=16 avg=0.000212132
Cache L2_bank_000:	Size = 131072 B (64 Set x 16-way x 128 byte line)
		Access = 25092, Miss = 8259 (0.329), PendingHit = 14 (0.000558)
Cache L2_bank_001:	Size = 131072 B (64 Set x 16-way x 128 byte line)
		Access = 156146, Miss = 8258 (0.0529), PendingHit = 11 (7.04e-05)
Cache L2_bank_002:	Size = 131072 B (64 Set x 16-way x 128 byte line)
		Access = 680464, Miss = 8264 (0.0121), PendingHit = 32 (4.7e-05)
Cache L2_bank_003:	Size = 131072 B (64 Set x 16-way x 128 byte line)
		Access = 941330, Miss = 8265 (0.00878), PendingHit = 36 (3.82e-05)
Cache L2_bank_004:	Size = 131072 B (64 Set x 16-way x 128 byte line)
		Access = 418034, Miss = 8259 (0.0198), PendingHit = 18 (4.31e-05)
L2 Cache Total Miss Rate = 0.019

icnt_total_pkts_mem_to_simt=10908438
icnt_total_pkts_simt_to_mem=2286858

LD_mem_lat_dist  0 0 0 0 0 0 0 0 0 0 0 0 0 0 0 0 0 0 0 0 0 0 0 0 0 0 0
ST_mem_lat_dist  0 0 0 0 0 0 0 0 0 0 0 0 0 0 0 0 0 0 0 0 0 0 0 0 0 0 0
Traffic 0 Stat
%=================================
% Average latency = 1.14715
% Accepted packets = 0 at node 0 (avg = 0.00104692)
lat(3) = 1.14715;
thru(3,:) = [ 0 0 0 0 0 0 0 0 0 0 0 0 0 0 0.000401734 0.00178206 0.00730399 0.0100513 0.00454013 0 0 0 0 ];
% latency change    = 11.2298
% throughput change = 12.5213
Traffic 1 Stat
%=================================
% Average latency = 5.14631
% Accepted packets = 0 at node 14 (avg = 0.00499453)
lat(4) = 5.14631;
thru(4,:) = [ 0.00807712 0.00807703 0.00807703 0.00807703 0.00807703 0.00807712 0.00807712 0.00807712 0.00807712 0.00852583 0.00852583 0.00852583 0.00807712 0.00852583 0 0 0 0 0 0 0 0 0 ];
% latency change    = 0.777092
% throughput change = 0.790386
----------------------------Interconnect-DETAILS---------------------------------=======Traffic[0]class0 ======
Traffic[0]class0Overall average latency = 3.11034 (2 samples)
Traffic[0]class0Overall average accepted rate = 0.00483009 (2 samples)
Traffic[0]class0Overall min accepted rate = 0 (2 samples)
traffic_manager/latency_stat_0_freq = [ 0 2186111 16276 308 187 2820 486 264 1616 5022 4976 759 219 129 125 77 90 106 23 28 17 35 27 13 3 9 7 8 2 3 4 3 0 1 0 4 2 2 1 5 0 6 0 3 2 4 2 0 3 3 2 5 3 1 1 5 1 8 2 6 2 12 2 7 0 10 4 10 2 5 1 6 3 11 7 11 3 8 2 8 1 7 1 8 3 7 2 10 2 12 1 10 2 8 1 12 3 11 1 4 3 10 3 6 1 6 2 10 2 7 4 9 3 11 2 15 3 7 4 9 3 11 2 8 2 11 2 7 4 8 3 8 2 14 1 8 2 7 1 10 0 8 0 6 2 8 3 4 2 9 1 8 2 9 3 6 3 6 1 7 5 7 3 5 5 11 3 6 3 3 0 2 4 8 1 3 2 6 2 7 0 6 3 5 1 7 1 4 0 11 3 6 0 5 1 3 1 6 1 7 4 1 1 4 0 3 1 5 1 5 2 6 0 2 2 6 2 7 2 6 0 8 0 4 0 2 1 4 2 3 1 7 3 5 2 4 2 3 1 3 2 8 1 6 2 5 0 4 2 3 2 4 2 8 2 9 3 12 2 5 0 3 2 6 1 7 1 5 0 7 1 5 0 6 1 7 0 5 1 0 0 1 1 5 0 3 2 3 0 7 1 1 1 4 1 0 0 0 0 2 0 1 0 5 0 5 0 3 0 5 0 1 1 3 0 2 0 0 0 2 0 7 0 2 0 1 0 3 0 2 0 2 0 2 0 0 0 0 0 1 0 2 0 1 0 0 0 0 0 0 0 1 0 0 0 0 0 0 0 0 0 0 0 0 0 1 0 0 0 0 0 0 0 0 0 0 0 0 0 0 0 0 0 0 0 0 0 0 0 0 0 0 0 0 0 0 0 0 0 0 0 0 0 0 0 0 0 1 0 0 0 0 0 0 0 0 0 0 0 0 0 0 0 0 0 0 0 0 0 0 0 0 0 0 0 0 0 0 0 0 0 0 0 0 0 0 0 0 0 0 0 0 0 0 0 0 0 0 0 0 0 0 0 0 0 0 0 0 0 0 0 0 0 0 0 0 0 0 0 0 0 0 0 0 0 0 0 0 0 0 0 0 0 0 0 0 0 0 0 0 0 0 0 0 0 0 0 0 0 0 0 0 0 0 0 0 0 0 0 0 0 0 0 0 0 0 0 0 0 0 0 0 0 0 0 0 0 0 0 0 0 0 0 0 0 0 0 0 0 0 0 0 0 0 0 0 0 0 0 0 0 0 0 0 0 0 0 0 0 0 0 0 0 0 0 0 0 0 0 0 0 0 0 0 0 0 0 0 0 0 0 0 0 0 0 0 0 0 0 0 0 0 0 0 0 0 0 0 0 0 0 0 0 0 0 0 0 0 0 0 0 0 0 0 0 0 0 0 0 0 0 0 0 0 0 0 0 0 0 0 0 0 0 0 0 0 0 0 0 0 0 0 0 0 0 0 0 0 0 0 0 0 0 0 0 0 0 0 0 0 0 0 0 0 0 0 0 0 0 0 0 0 0 0 0 0 0 0 0 0 0 0 0 0 0 0 0 0 0 0 0 0 0 0 0 0 0 0 0 0 0 0 0 0 0 0 0 0 0 0 0 0 0 0 0 0 0 0 0 0 0 0 0 0 0 0 0 0 0 0 0 0 0 0 0 0 0 0 0 0 0 0 0 0 0 0 0 0 0 0 0 0 0 0 0 0 0 0 0 0 0 0 0 0 0 0 0 0 0 0 0 0 0 0 0 0 0 0 0 0 0 0 0 0 0 0 0 0 0 0 0 0 0 0 0 0 0 0 0 0 0 0 0 0 0 0 0 0 0 0 0 0 0 0 0 0 0 0 0 0 0 0 0 0 0 0 0 0 0 0 0 0 0 0 0 0 0 0 0 0 0 0 0 0 0 0 0 0 0 0 0 0 0 0 0 0 0 0 0 0 0 0 0 0 0 0 0 0 0 0 0 0 0 0 0 0 0 0 0 0 0 0 0 0 0 0 0 0 0 0 0 0 0 0 0 0 0 0 0 0 0 0 0 0 0 0 0 0 0 0 0 0 0 0 0 0 0 0 0 0 0 0 0 0 0 0 0 0 0 0 0 0 0 0 0 0 0 0 0 0 0 0 0 0 0 0 0 0 0 0 0 0 0 0 0 0 0 0 0 0 0 0 0 0 0 0 0 0 0 0 0 0 0 0 0 0 0 0 0 0 0 0 0 0 0 0 0 0 0 0 ];
Traffic[0]class1Average hops = 1 (2221066 samples)
traffic_manager/hop_stats_freq = [ 0 2221066 0 0 0 0 0 0 0 0 0 0 0 0 0 0 0 0 0 0 ];
=======Traffic[1]class0 ======
Traffic[1]class0Overall average latency = 9.58786 (2 samples)
Traffic[1]class0Overall average accepted rate = 0.00957512 (2 samples)
Traffic[1]class0Overall min accepted rate = 0 (2 samples)
traffic_manager/latency_stat_0_freq = [ 0 15327 229 63906 765 2032816 33953 2352 45619 4762 1330 2266 1229 1027 1710 839 1634 1010 767 554 716 962 435 520 572 411 633 423 323 366 354 299 254 264 156 250 264 132 147 131 153 128 104 96 90 108 88 46 75 46 25 73 16 20 13 17 18 3 13 3 2 6 0 1 3 1 1 0 0 0 0 4 0 0 2 0 0 0 0 0 0 0 0 0 0 0 0 0 0 0 0 0 0 0 0 0 0 0 0 0 0 0 0 0 0 0 0 0 0 0 0 0 0 0 0 0 0 0 0 0 0 0 0 0 0 0 0 0 0 0 0 0 0 0 0 0 0 0 0 0 0 0 0 0 0 0 0 0 0 0 0 0 0 0 0 0 0 0 0 0 0 0 0 0 0 0 0 0 0 0 0 0 0 0 0 0 0 0 0 0 0 0 0 0 0 0 0 0 0 0 0 0 0 0 0 0 0 0 0 0 0 0 0 0 0 0 0 0 0 0 0 0 0 0 0 0 0 0 0 0 0 0 0 0 0 0 0 0 0 0 0 0 0 0 0 0 0 0 0 0 0 0 0 0 0 0 0 0 0 0 0 0 0 0 0 0 0 0 0 0 0 0 0 0 0 0 0 0 0 0 0 0 0 0 0 0 0 0 0 0 0 0 0 0 0 0 0 0 0 0 0 0 0 0 0 0 0 0 0 0 0 0 0 0 0 0 0 0 0 0 0 0 0 0 0 0 0 0 0 0 0 0 0 0 0 0 0 0 0 0 0 0 0 0 0 0 0 0 0 0 0 0 0 0 0 0 0 0 0 0 0 0 0 0 0 0 0 0 0 0 0 0 0 0 0 0 0 0 0 0 0 0 0 0 0 0 0 0 0 0 0 0 0 0 0 0 0 0 0 0 0 0 0 0 0 0 0 0 0 0 0 0 0 0 0 0 0 0 0 0 0 0 0 0 0 0 0 0 0 0 0 0 0 0 0 0 0 0 0 0 0 0 0 0 0 0 0 0 0 0 0 0 0 0 0 0 0 0 0 0 0 0 0 0 0 0 0 0 0 0 0 0 0 0 0 0 0 0 0 0 0 0 0 0 0 0 0 0 0 0 0 0 0 0 0 0 0 0 0 0 0 0 0 0 0 0 0 0 0 0 0 0 0 0 0 0 0 0 0 0 0 0 0 0 0 0 0 0 0 0 0 0 0 0 0 0 0 0 0 0 0 0 0 0 0 0 0 0 0 0 0 0 0 0 0 0 0 0 0 0 0 0 0 0 0 0 0 0 0 0 0 0 0 0 0 0 0 0 0 0 0 0 0 0 0 0 0 0 0 0 0 0 0 0 0 0 0 0 0 0 0 0 0 0 0 0 0 0 0 0 0 0 0 0 0 0 0 0 0 0 0 0 0 0 0 0 0 0 0 0 0 0 0 0 0 0 0 0 0 0 0 0 0 0 0 0 0 0 0 0 0 0 0 0 0 0 0 0 0 0 0 0 0 0 0 0 0 0 0 0 0 0 0 0 0 0 0 0 0 0 0 0 0 0 0 0 0 0 0 0 0 0 0 0 0 0 0 0 0 0 0 0 0 0 0 0 0 0 0 0 0 0 0 0 0 0 0 0 0 0 0 0 0 0 0 0 0 0 0 0 0 0 0 0 0 0 0 0 0 0 0 0 0 0 0 0 0 0 0 0 0 0 0 0 0 0 0 0 0 0 0 0 0 0 0 0 0 0 0 0 0 0 0 0 0 0 0 0 0 0 0 0 0 0 0 0 0 0 0 0 0 0 0 0 0 0 0 0 0 0 0 0 0 0 0 0 0 0 0 0 0 0 0 0 0 0 0 0 0 0 0 0 0 0 0 0 0 0 0 0 0 0 0 0 0 0 0 0 0 0 0 0 0 0 0 0 0 0 0 0 0 0 0 0 0 0 0 0 0 0 0 0 0 0 0 0 0 0 0 0 0 0 0 0 0 0 0 0 0 0 0 0 0 0 0 0 0 0 0 0 0 0 0 0 0 0 0 0 0 0 0 0 0 0 0 0 0 0 0 0 0 0 0 0 0 0 0 0 0 0 0 0 0 0 0 0 0 0 0 0 0 0 0 0 0 0 0 0 0 0 0 0 0 0 0 0 0 0 0 0 0 0 0 0 0 0 0 0 0 0 0 0 0 0 0 0 0 0 0 0 0 0 0 0 0 0 0 0 0 0 0 0 0 0 0 0 0 0 0 0 0 0 0 0 0 0 0 0 0 0 0 0 0 0 0 0 0 0 0 0 ];
Traffic[1]class1Average hops = 1 (2221066 samples)
traffic_manager/hop_stats_freq = [ 0 2221066 0 0 0 0 0 0 0 0 0 0 0 0 0 0 0 0 0 0 ];
----------------------------END-of-Interconnect-DETAILS-------------------------

gpgpu_simulation_time = 0 days, 15 hrs, 12 min, 8 sec (54728 sec)
gpgpu_simulation_rate = 488235 (inst/sec)
gpgpu_simulation_rate = 867 (cycle/sec)

kernel '_Z12ComputeQ_GPUiiPfS_S_S_S_' transfer to GPU hardware scheduler
kernel_name = _Z12ComputeQ_GPUiiPfS_S_S_S_ 
kernel_launch_uid = 3 
gpu_sim_cycle = 46759770
gpu_sim_insn = 26719814652
gpu_ipc =     571.4274
gpu_tot_sim_cycle = 94237582
gpu_tot_sim_insn = 53439941857
gpu_tot_ipc =     567.0767
gpu_tot_issued_cta = 0
gpu_stall_dramfull = 9035
gpu_stall_icnt2sh    = 29585
gpu_total_sim_rate=522292
Cache L1D_000:	Size = 16384 B (32 Set x 4-way x 128 byte line)
		Access = 5760, Miss = 5760 (1), PendingHit = 0 (0)
Cache L1D_001:	Size = 16384 B (32 Set x 4-way x 128 byte line)
		Access = 5952, Miss = 5952 (1), PendingHit = 0 (0)
Cache L1D_002:	Size = 16384 B (32 Set x 4-way x 128 byte line)
		Access = 5792, Miss = 5792 (1), PendingHit = 0 (0)
Cache L1D_003:	Size = 16384 B (32 Set x 4-way x 128 byte line)
		Access = 5792, Miss = 5792 (1), PendingHit = 0 (0)
Cache L1D_004:	Size = 16384 B (32 Set x 4-way x 128 byte line)
		Access = 5792, Miss = 5792 (1), PendingHit = 0 (0)
Cache L1D_005:	Size = 16384 B (32 Set x 4-way x 128 byte line)
		Access = 5760, Miss = 5760 (1), PendingHit = 0 (0)
Cache L1D_006:	Size = 16384 B (32 Set x 4-way x 128 byte line)
		Access = 5760, Miss = 5760 (1), PendingHit = 0 (0)
Cache L1D_007:	Size = 16384 B (32 Set x 4-way x 128 byte line)
		Access = 5760, Miss = 5760 (1), PendingHit = 0 (0)
Cache L1D_008:	Size = 16384 B (32 Set x 4-way x 128 byte line)
		Access = 5760, Miss = 5760 (1), PendingHit = 0 (0)
Cache L1D_009:	Size = 16384 B (32 Set x 4-way x 128 byte line)
		Access = 6080, Miss = 6080 (1), PendingHit = 0 (0)
Cache L1D_010:	Size = 16384 B (32 Set x 4-way x 128 byte line)
		Access = 6080, Miss = 6080 (1), PendingHit = 0 (0)
Cache L1D_011:	Size = 16384 B (32 Set x 4-way x 128 byte line)
		Access = 5920, Miss = 5920 (1), PendingHit = 0 (0)
Cache L1D_012:	Size = 16384 B (32 Set x 4-way x 128 byte line)
		Access = 5920, Miss = 5920 (1), PendingHit = 0 (0)
Cache L1D_013:	Size = 16384 B (32 Set x 4-way x 128 byte line)
		Access = 5920, Miss = 5920 (1), PendingHit = 0 (0)
total_dl1_misses=82048
total_dl1_accesses=82048
total_dl1_miss_rate= 1.000000
Shader 0 dynamic_warp_id issue ditsribution:
dynamic_warp_id:
0, 1, 2, 3, 4, 5, 6, 7, 8, 9, 10, 11, 12, 13, 14, 15, 16, 17, 18, 19, 20, 21, 22, 23, 24, 25, 26, 27, 28, 29, 30, 31, 32, 33, 34, 35, 36, 37, 38, 39, 40, 41, 42, 43, 44, 45, 46, 47, 48, 49, 50, 51, 52, 53, 54, 55, 56, 57, 58, 59, 60, 61, 62, 63, 64, 65, 66, 67, 68, 69, 70, 71, 72, 73, 74, 75, 76, 77, 78, 79, 80, 81, 82, 83, 84, 85, 86, 87, 88, 89, 90, 91, 92, 93, 94, 95, 96, 97, 98, 99, 100, 101, 102, 103, 104, 105, 106, 107, 108, 109, 110, 111, 112, 113, 114, 115, 116, 117, 118, 119, 120, 121, 122, 123, 124, 125, 126, 127, 128, 129, 130, 131, 132, 133, 134, 135, 136, 137, 138, 139, 140, 141, 142, 143, 144, 145, 146, 147, 148, 149, 150, 151, 152, 153, 154, 155, 156, 157, 158, 159, 160, 161, 162, 163, 164, 165, 166, 167, 168, 169, 170, 171, 172, 173, 174, 175, 176, 177, 178, 179, 180, 181, 182, 183, 184, 185, 186, 187, 188, 189, 190, 191, 192, 193, 194, 195, 196, 197, 198, 199, 200, 201, 202, 203, 204, 205, 206, 207, 208, 209, 210, 211, 212, 213, 214, 215, 216, 217, 218, 219, 220, 221, 222, 223, 224, 225, 226, 227, 228, 229, 230, 231, 232, 233, 234, 235, 236, 237, 238, 239, 240, 241, 242, 243, 244, 245, 246, 247, 248, 249, 250, 251, 252, 253, 254, 255, 256, 257, 258, 259, 260, 261, 262, 263, 264, 265, 266, 267, 268, 269, 270, 271, 272, 273, 274, 275, 276, 277, 278, 279, 280, 281, 282, 283, 284, 285, 286, 287, 288, 289, 290, 291, 292, 293, 294, 295, 296, 297, 298, 299, 300, 301, 302, 303, 304, 305, 306, 307, 308, 309, 310, 311, 312, 313, 314, 315, 316, 317, 318, 319, 320, 321, 322, 323, 324, 325, 326, 327, 328, 329, 330, 331, 332, 333, 334, 335, 336, 337, 338, 339, 340, 341, 342, 343, 344, 345, 346, 347, 348, 349, 350, 351, 352, 353, 354, 355, 356, 357, 358, 359, 360, 361, 362, 363, 364, 365, 366, 367, 368, 369, 370, 371, 372, 373, 374, 375, 376, 377, 378, 379, 380, 381, 382, 383, 384, 385, 386, 387, 388, 389, 390, 391, 392, 393, 394, 395, 396, 397, 398, 399, 400, 401, 402, 403, 404, 405, 406, 407, 408, 409, 410, 411, 412, 413, 414, 415, 416, 417, 418, 419, 420, 421, 422, 423, 424, 425, 426, 427, 428, 429, 430, 431, 432, 433, 434, 435, 436, 437, 438, 439, 440, 441, 442, 443, 444, 445, 446, 447, 448, 449, 450, 451, 452, 453, 454, 455, 456, 457, 458, 459, 460, 461, 462, 463, 464, 465, 466, 467, 468, 469, 470, 471, 472, 473, 474, 475, 476, 477, 478, 479, 480, 481, 482, 483, 484, 485, 486, 487, 488, 489, 490, 491, 492, 493, 494, 495, 496, 497, 498, 499, 500, 501, 502, 503, 504, 505, 506, 507, 508, 509, 510, 511, 512, 513, 514, 515, 516, 517, 518, 519, 520, 521, 522, 523, 524, 525, 526, 527, 528, 529, 530, 531, 532, 533, 534, 535, 536, 537, 538, 539, 540, 541, 542, 543, 544, 545, 546, 547, 548, 549, 550, 551, 552, 553, 554, 555, 556, 557, 558, 559, 560, 561, 562, 563, 564, 565, 566, 567, 568, 569, 570, 571, 572, 573, 574, 575, 576, 577, 578, 579, 580, 581, 582, 583, 584, 585, 586, 587, 588, 589, 590, 591, 592, 593, 594, 595, 596, 597, 598, 599, 600, 601, 602, 603, 604, 605, 606, 607, 608, 609, 610, 611, 612, 613, 614, 615, 616, 617, 618, 619, 620, 621, 622, 623, 624, 625, 626, 627, 628, 629, 630, 631, 632, 633, 634, 635, 636, 637, 638, 639, 640, 641, 642, 643, 644, 645, 646, 647, 648, 649, 650, 651, 652, 653, 654, 655, 656, 657, 658, 659, 660, 661, 662, 663, 664, 665, 666, 667, 668, 669, 670, 671, 672, 673, 674, 675, 676, 677, 678, 679, 680, 681, 682, 683, 684, 685, 686, 687, 688, 689, 690, 691, 692, 693, 694, 695, 696, 697, 698, 699, 700, 701, 702, 703, 704, 705, 706, 707, 708, 709, 710, 711, 712, 713, 714, 715, 716, 717, 718, 719, 720, 721, 722, 723, 724, 725, 726, 727, 728, 729, 730, 731, 732, 733, 734, 735, 736, 737, 738, 739, 740, 741, 742, 743, 744, 745, 746, 747, 748, 749, 750, 751, 752, 753, 754, 755, 756, 757, 758, 759, 760, 761, 762, 763, 764, 765, 766, 767, 768, 769, 770, 771, 772, 773, 774, 775, 776, 777, 778, 779, 780, 781, 782, 783, 784, 785, 786, 787, 788, 789, 790, 791, 792, 793, 794, 795, 796, 797, 798, 799, 800, 801, 802, 803, 804, 805, 806, 807, 808, 809, 810, 811, 812, 813, 814, 815, 816, 817, 818, 819, 820, 821, 822, 823, 824, 825, 826, 827, 828, 829, 830, 831, 832, 833, 834, 835, 836, 837, 838, 839, 840, 841, 842, 843, 844, 845, 846, 847, 848, 849, 850, 851, 852, 853, 854, 855, 856, 857, 858, 859, 860, 861, 862, 863, 864, 865, 866, 867, 868, 869, 870, 871, 872, 873, 874, 875, 876, 877, 878, 879, 880, 881, 882, 883, 884, 885, 886, 887, 888, 889, 890, 891, 892, 893, 894, 895, 896, 897, 898, 899, 900, 901, 902, 903, 904, 905, 906, 907, 908, 909, 910, 911, 912, 913, 914, 915, 916, 917, 918, 919, 920, 921, 922, 923, 924, 925, 926, 927, 928, 929, 930, 931, 932, 933, 934, 935, 936, 937, 938, 939, 940, 941, 942, 943, 944, 945, 946, 947, 948, 949, 950, 951, 952, 953, 954, 955, 956, 957, 958, 959, 960, 961, 962, 963, 964, 965, 966, 967, 968, 969, 970, 971, 972, 973, 974, 975, 976, 977, 978, 979, 980, 981, 982, 983, 984, 985, 986, 987, 988, 989, 990, 991, 992, 993, 994, 995, 996, 997, 998, 999, 1000, 1001, 1002, 1003, 1004, 1005, 1006, 1007, 1008, 1009, 1010, 1011, 1012, 1013, 1014, 1015, 1016, 1017, 1018, 1019, 1020, 1021, 1022, 1023, 1024, 1025, 1026, 1027, 1028, 1029, 1030, 1031, 1032, 1033, 1034, 1035, 1036, 1037, 1038, 1039, 1040, 1041, 1042, 1043, 1044, 1045, 1046, 1047, 1048, 1049, 1050, 1051, 1052, 1053, 1054, 1055, 1056, 1057, 1058, 1059, 1060, 1061, 1062, 1063, 1064, 1065, 1066, 1067, 1068, 1069, 1070, 1071, 1072, 1073, 1074, 1075, 1076, 1077, 1078, 1079, 1080, 1081, 1082, 1083, 1084, 1085, 1086, 1087, 1088, 1089, 1090, 1091, 1092, 1093, 1094, 1095, 1096, 1097, 1098, 1099, 1100, 1101, 1102, 1103, 1104, 1105, 1106, 1107, 1108, 1109, 1110, 1111, 1112, 1113, 1114, 1115, 1116, 1117, 1118, 1119, 1120, 1121, 1122, 1123, 1124, 1125, 1126, 1127, 1128, 1129, 1130, 1131, 1132, 1133, 1134, 1135, 1136, 1137, 1138, 1139, 1140, 1141, 1142, 1143, 1144, 1145, 1146, 1147, 1148, 1149, 1150, 1151, 
distro:
[...]
gpgpu_stall_shd_mem[l_mem_ld][wb_icnt_rc] = 0
gpgpu_stall_shd_mem[l_mem_ld][wb_rsrv_fail] = 0
gpu_reg_bank_conflict_stalls = 0
Warp Occupancy Distribution:
Stall:259511028	W0_Idle:229029831	W0_Scoreboard:77965400	W1:227590	W2:269195	W3:405977	W4:393601	W5:399619	W6:386155	W7:467211	W8:635477	W9:747286	W10:2292552	W11:5199365	W12:6763025	W13:12487418	W14:37604578	W15:108228120	W16:202990676	W17:108228120	W18:37604578	W19:12487418	W20:6763025	W21:5199365	W22:2292552	W23:747286	W24:635477	W25:467211	W26:386155	W27:399619	W28:393601	W29:405977	W30:269195	W31:204612	W32:1417274295
maxmrqlatency = 209 
maxdqlatency = 0 
maxmflatency = 516 
averagemflatency = 117 
max_icnt2mem_latency = 314 
max_icnt2sh_latency = 94237581 
mrq_lat_table:101263 	1096 	1730 	5673 	1456 	1004 	376 	34 	0 	0 	0 	0 	0 	0 	0 	0 	0 	0 	0 	0 	0 	0 	0 	0 	0 	0 	0 	0 	0 	0 	0 	0 	
dq_lat_table:0 	0 	0 	0 	0 	0 	0 	0 	0 	0 	0 	0 	0 	0 	0 	0 	0 	0 	0 	0 	0 	0 	0 	0 	0 	0 	0 	0 	0 	0 	0 	0 	
mf_lat_table:0 	0 	0 	0 	0 	0 	163690 	78670 	3604 	2 	0 	0 	0 	0 	0 	0 	0 	0 	0 	0 	0 	0 	0 	0 	0 	0 	0 	0 	0 	0 	0 	0 	
icnt2mem_lat_table:4164319 	240013 	17377 	11019 	6327 	507 	1461 	841 	2 	0 	0 	0 	0 	0 	0 	0 	0 	0 	0 	0 	0 	0 	0 	0 	
icnt2sh_lat_table:0 	161663 	26504 	19080 	5854 	33 	0 	0 	0 	15 	49 	0 	0 	0 	0 	0 	0 	0 	0 	0 	0 	896 	1792 	2688 	
mf_lat_pw_table:6272 	11008 	10112 	0 	0 	0 	93707 	983 	7 	0 	0 	0 	0 	0 	0 	0 	0 	0 	0 	0 	0 	0 	0 	0 	0 	0 	0 	0 	0 	0 	0 	0 	
maximum concurrent accesses to same row:
dram[0]:        32        32        32        32        32        32        32        32        32        32        44        32        32        32        32        32 
dram[1]:        32        32        32        32        32        32        32        32        32        32        44        32        32        32        32        32 
dram[2]:        32        32        32        32        32        32        32        32        32        32        46        32        32        32        32        32 
dram[3]:        32        32        32        32        32        32        32        32        32        32        46        32        32        32        32        32 
dram[4]:        32        32        32        32        32        32        32        32        32        32        44        32        32        32        32        32 
maximum service time to same row:
dram[0]:   4985335   4978990   4979102   4980432   4964471   4973034   4968750   4964702   4977645   4969873   4965408   4978027   4966865   4986221   4975281   4965706 
dram[1]:   4985337   4978992   4979101   4980433   4964389   4973035   4968748   4964700   4977643   4969875   4965409   4978026   4966865   4986299   4975281   4965708 
dram[2]:   4985337   4978976   4979099   4980418   4964390   4973108   4968747   4964699   4977642   4969872   4965392   4978027   4966931   4986222   4975343   4965697 
dram[3]:   4985337   4978992   4979113   4980436   4964392   4973109   4968723   4964691   4977639   4969872   4965415   4977964   4966980   4986219   4975360   4965708 
dram[4]:   4985339   4978985   4979118   4980497   4964411   4973114   4968722   4964691   4977635   4969821   4965422   4977976   4966849   4986217   4975363   4965706 
average row accesses per activate:
dram[0]: 24.298246 23.661016 25.018183 23.719297 20.000000 21.333334 16.372093 15.434783 21.492537 14.235294 17.523809 27.076923 32.000000 22.709677 29.333334 30.478260 
dram[1]: 25.163637 23.661016 24.140350 24.545454 20.597015 20.705883 17.170732 17.530865 21.492537 14.816326 15.659575 28.160000 30.608696 24.275862 25.142857 30.478260 
dram[2]: 23.559322 24.491228 21.841270 25.471699 20.656717 20.705883 16.000000 16.136364 19.726027 15.782609 14.888889 27.076923 29.333334 23.466667 26.074074 30.478260 
dram[3]: 25.290909 24.456141 24.140350 24.107143 20.352942 20.705883 16.000000 15.800000 20.281691 14.540000 14.740000 27.076923 30.608696 22.709677 26.074074 31.863636 
dram[4]: 27.196079 23.627119 30.555555 23.684210 19.771429 21.333334 19.027027 15.800000 22.153847 14.540000 19.064936 27.076923 32.000000 21.333334 30.608696 30.434782 
average row locality = 112632/5228 = 21.543993
number of total memory accesses made:
dram[0]:         0         0         0         0         0         0         0         0         0         0         0         0         0         0         0         0 
dram[1]:         0         0         0         0         0         0         0         0         0         0         0         0         0         0         0         0 
dram[2]:         0         0         0         0         0         0         0         0         0         0         0         0         0         0         0         0 
dram[3]:         0         0         0         0         0         0         0         0         0         0         0         0         0         0         0         0 
dram[4]:         0         0         0         0         0         0         0         0         0         0         0         0         0         0         0         0 
total accesses: 0
min_bank_accesses = 0!
min_chip_accesses = 0!
number of total read accesses:
dram[0]:      1033      1044      1024      1024      1024      1024      1024      1024      1024      1036      1050      1024      1024      1024      1024      1024 
dram[1]:      1032      1044      1024      1024      1024      1024      1024      1024      1024      1036      1050      1024      1024      1024      1024      1024 
dram[2]:      1038      1044      1024      1024      1024      1024      1024      1024      1024      1036      1050      1024      1024      1024      1024      1024 
dram[3]:      1039      1042      1024      1024      1024      1024      1024      1024      1024      1038      1050      1024      1024      1024      1024      1024 
dram[4]:      1035      1042      1024      1024      1024      1024      1024      1024      1024      1038      1048      1024      1024      1024      1024      1024 
total reads: 82265
bank skew: 1050/1024 = 1.03
chip skew: 16457/16450 = 1.00
number of total write accesses:
dram[0]:       352       352       352       328       356       384       384       396       416       416       422       384       384       384       384       378 
dram[1]:       352       352       352       326       356       384       384       396       416       416       422       384       384       384       384       378 
dram[2]:       352       352       352       326       360       384       384       396       416       416       424       384       384       384       384       378 
dram[3]:       352       352       352       326       360       384       384       398       416       416       424       384       384       384       384       378 
dram[4]:       352       352       351       326       360       384       384       398       416       416       420       384       384       384       384       376 
total reads: 30367
bank skew: 424/326 = 1.30
chip skew: 6078/6070 = 1.00
average mf latency per bank:
dram[0]:        541      1418       159       162       157       159       160       156       154       155       151       150       152       152       157       156
dram[1]:        540      1418       159       162       158       160       160       155       155       155       151       150       153       152       157       157
dram[2]:        538      1420       160       162       159       161       161       155       155       155       151       150       152       151       156       156
dram[3]:        535      1293       158       160       157       158       158       155       153       154       150       150       152       150       154       155
dram[4]:        665      1293       158       161       158       159       159       155       154       154       150       150       152       151       154       155
maximum mf latency per bank:
dram[0]:        457       406       421       423       513       495       414       470       455       423       397       317       375       375       415       439
dram[1]:        424       445       446       428       482       480       488       435       411       379       380       322       362       368       404       443
dram[2]:        393       461       469       456       516       510       500       470       422       434       411       305       375       381       402       429
dram[3]:        373       407       390       395       403       485       434       409       415       360       357       345       336       358       351       388
dram[4]:        405       455       402       500       484       440       480       423       414       429       414       339       360       377       366       381

Number of Memory Banks Accessed per Memory Operation per Warp (from 0):
0	0	0	0	0	0	0	0	0	0	0	0	0	0	0	0	0	0	0	0	0	0	0	0	0	0	0	0	0	0	0	0	0	0	0	0	0	0	0	0	0	0	0	0	0	0	0	0	0	0	0	0	0	0	0	0	0	0	0	0	0	0	0	0	0	0	0	0	0	0	0	0	0	0	0	0	0	0	0	0	
Average # of Memory Banks Accessed per Memory Operation per Warp=-nan

position of mrq chosen
0	0	0	0	0	0	0	0	0	0	0	0	0	0	0	0	

average position of mrq chosen = -nan
gpgpu_l2_write_miss = 0
gpgpu_l2_write_access = 0
gpgpu_l2_read_miss = 0
gpgpu_l2_read_access = 0
Cache L2_bank_000:
MSHR contents

DRAM[0]: 16 bks, busW=4 BL=8 CL=12, tRRD=2 tCCD=6, tRCD=12 tRAS=28 tRP=12 tRC=40
n_cmd=212034555 n_nop=211987431 n_act=1047 n_pre=1031 n_req=22523 n_rd=32902 n_write=12144 bw_util=0.0004249
n_activity=295774 dram_eff=0.3046
bk0: 2066a 212023786i bk1: 2088a 212023000i bk2: 2048a 212023895i bk3: 2048a 212022829i bk4: 2048a 212023946i bk5: 2048a 212023839i bk6: 2048a 212023639i bk7: 2048a 212023743i bk8: 2048a 212023516i bk9: 2072a 212021876i bk10: 2100a 212022345i bk11: 2048a 212020372i bk12: 2048a 212020616i bk13: 2048a 212018160i bk14: 2048a 212016501i bk15: 2048a 212003349i 
dram_util_bins: 0 0 0 0 0 0 0 0 0 0
dram_eff_bins: 0 0 0 0 0 0 0 0 0 0
mrqq: max=16 avg=0.000376613
Cache L2_bank_001:
MSHR contents

DRAM[1]: 16 bks, busW=4 BL=8 CL=12, tRRD=2 tCCD=6, tRCD=12 tRAS=28 tRP=12 tRC=40
n_cmd=212034555 n_nop=211987451 n_act=1040 n_pre=1024 n_req=22520 n_rd=32900 n_write=12140 bw_util=0.0004248
n_activity=296565 dram_eff=0.3037
bk0: 2064a 212023858i bk1: 2088a 212022913i bk2: 2048a 212023958i bk3: 2048a 212022652i bk4: 2048a 212023829i bk5: 2048a 212022275i bk6: 2048a 212023798i bk7: 2048a 212023196i bk8: 2048a 212022778i bk9: 2072a 212022943i bk10: 2100a 212021664i bk11: 2048a 212020422i bk12: 2048a 212021660i bk13: 2048a 212017325i bk14: 2048a 212017717i bk15: 2048a 212002752i 
dram_util_bins: 0 0 0 0 0 0 0 0 0 0
dram_eff_bins: 0 0 0 0 0 0 0 0 0 0
mrqq: max=16 avg=0.000371689
Cache L2_bank_002:
MSHR contents

DRAM[2]: 16 bks, busW=4 BL=8 CL=12, tRRD=2 tCCD=6, tRCD=12 tRAS=28 tRP=12 tRC=40
n_cmd=212034555 n_nop=211987373 n_act=1067 n_pre=1051 n_req=22532 n_rd=32912 n_write=12152 bw_util=0.0004251
n_activity=296715 dram_eff=0.3038
bk0: 2076a 212023657i bk1: 2088a 212023463i bk2: 2048a 212023356i bk3: 2048a 212023662i bk4: 2048a 212023734i bk5: 2048a 212022735i bk6: 2048a 212023449i bk7: 2048a 212023541i bk8: 2048a 212022955i bk9: 2072a 212022146i bk10: 2100a 212022026i bk11: 2048a 212020610i bk12: 2048a 212020376i bk13: 2048a 212018376i bk14: 2048a 212016312i bk15: 2048a 212002847i 
dram_util_bins: 0 0 0 0 0 0 0 0 0 0
dram_eff_bins: 0 0 0 0 0 0 0 0 0 0
mrqq: max=16 avg=0.000382362
Cache L2_bank_003:
MSHR contents

DRAM[3]: 16 bks, busW=4 BL=8 CL=12, tRRD=2 tCCD=6, tRCD=12 tRAS=28 tRP=12 tRC=40
n_cmd=212034555 n_nop=211987365 n_act=1068 n_pre=1052 n_req=22535 n_rd=32914 n_write=12156 bw_util=0.0004251
n_activity=296945 dram_eff=0.3036
bk0: 2078a 212023751i bk1: 2084a 212023167i bk2: 2048a 212023648i bk3: 2048a 212022814i bk4: 2048a 212023454i bk5: 2048a 212023576i bk6: 2048a 212023310i bk7: 2048a 212023606i bk8: 2048a 212023406i bk9: 2076a 212022816i bk10: 2100a 212022686i bk11: 2048a 212020431i bk12: 2048a 212020734i bk13: 2048a 212017851i bk14: 2048a 212016337i bk15: 2048a 212002249i 
dram_util_bins: 0 0 0 0 0 0 0 0 0 0
dram_eff_bins: 0 0 0 0 0 0 0 0 0 0
mrqq: max=16 avg=0.000399756
Cache L2_bank_004:
MSHR contents

DRAM[4]: 16 bks, busW=4 BL=8 CL=12, tRRD=2 tCCD=6, tRCD=12 tRAS=28 tRP=12 tRC=40
n_cmd=212034555 n_nop=211987511 n_act=1008 n_pre=992 n_req=22522 n_rd=32902 n_write=12142 bw_util=0.0004249
n_activity=294332 dram_eff=0.3061
bk0: 2070a 212023400i bk1: 2084a 212023347i bk2: 2048a 212023619i bk3: 2048a 212023179i bk4: 2048a 212023388i bk5: 2048a 212022927i bk6: 2048a 212024213i bk7: 2048a 212022314i bk8: 2048a 212023616i bk9: 2076a 212021030i bk10: 2096a 212023335i bk11: 2048a 212019672i bk12: 2048a 212020475i bk13: 2048a 212017995i bk14: 2048a 212016990i bk15: 2048a 212003660i 
dram_util_bins: 0 0 0 0 0 0 0 0 0 0
dram_eff_bins: 0 0 0 0 0 0 0 0 0 0
mrqq: max=16 avg=0.000385183
Cache L2_bank_000:	Size = 131072 B (64 Set x 16-way x 128 byte line)
		Access = 50128, Miss = 16451 (0.328), PendingHit = 14 (0.000279)
Cache L2_bank_001:	Size = 131072 B (64 Set x 16-way x 128 byte line)
		Access = 312254, Miss = 16450 (0.0527), PendingHit = 11 (3.52e-05)
Cache L2_bank_002:	Size = 131072 B (64 Set x 16-way x 128 byte line)
		Access = 1360862, Miss = 16456 (0.0121), PendingHit = 32 (2.35e-05)
Cache L2_bank_003:	Size = 131072 B (64 Set x 16-way x 128 byte line)
		Access = 1882592, Miss = 16457 (0.00874), PendingHit = 36 (1.91e-05)
Cache L2_bank_004:	Size = 131072 B (64 Set x 16-way x 128 byte line)
		Access = 836030, Miss = 16451 (0.0197), PendingHit = 18 (2.15e-05)
L2 Cache Total Miss Rate = 0.019

icnt_total_pkts_mem_to_simt=21815830
icnt_total_pkts_simt_to_mem=4573194

LD_mem_lat_dist  0 0 0 0 0 0 0 0 0 0 0 0 0 0 0 0 0 0 0 0 0 0 0 0 0 0 0
ST_mem_lat_dist  0 0 0 0 0 0 0 0 0 0 0 0 0 0 0 0 0 0 0 0 0 0 0 0 0 0 0
Traffic 0 Stat
%=================================
% Average latency = 1.14103
% Accepted packets = 0 at node 0 (avg = 0.00106294)
lat(5) = 1.14103;
thru(5,:) = [ 0 0 0 0 0 0 0 0 0 0 0 0 0 0 0.000407829 0.00180938 0.00741567 0.0102051 0.00460973 0 0 0 0 ];
% latency change    = 3.51024
% throughput change = 3.69878
Traffic 1 Stat
%=================================
% Average latency = 5.14974
% Accepted packets = 0 at node 14 (avg = 0.00507097)
lat(6) = 5.14974;
thru(6,:) = [ 0.0082007 0.0086563 0.0082007 0.0082007 0.0082007 0.0082007 0.0082007 0.0082007 0.0082007 0.0086563 0.0086563 0.0082007 0.0086563 0.0082007 0 0 0 0 0 0 0 0 0 ];
% latency change    = 0.77843
% throughput change = 0.790387
----------------------------Interconnect-DETAILS---------------------------------=======Traffic[0]class0 ======
Traffic[0]class0Overall average latency = 2.4539 (3 samples)
Traffic[0]class0Overall average accepted rate = 0.00357438 (3 samples)
Traffic[0]class0Overall min accepted rate = 0 (3 samples)
traffic_manager/latency_stat_0_freq = [ 0 2185299 16564 404 262 3457 713 443 1748 4415 4408 739 257 122 138 133 153 144 32 31 26 49 33 17 9 18 5 13 3 7 6 14 4 7 1 12 1 7 0 10 3 5 2 14 1 4 3 9 2 10 5 8 3 5 7 2 2 7 3 12 3 6 3 8 5 6 4 8 2 4 5 6 5 5 0 8 1 7 2 10 6 8 1 10 4 3 2 7 4 11 3 7 1 8 4 10 2 6 4 2 2 14 5 13 3 9 3 9 3 13 6 6 2 10 2 14 4 7 3 5 3 10 3 12 1 5 0 8 1 8 2 12 4 5 2 8 0 14 3 6 1 7 6 13 1 6 3 11 2 4 3 6 3 4 3 10 3 7 3 9 3 7 2 9 1 10 4 7 1 8 2 14 1 7 6 3 1 6 2 4 1 9 4 10 2 8 3 8 1 9 2 12 0 7 4 6 2 5 0 10 0 10 1 10 1 8 0 5 4 6 2 6 0 5 0 9 0 5 0 7 0 7 1 6 0 5 0 6 0 4 1 1 0 2 2 5 1 6 0 5 0 3 0 2 0 4 0 5 2 4 1 3 0 4 0 4 0 3 0 4 1 2 0 3 0 4 0 1 0 7 0 1 1 2 0 2 0 0 0 2 1 1 0 1 0 3 0 1 1 1 0 0 0 3 0 2 0 1 1 1 0 1 0 1 0 0 0 1 1 1 0 1 0 0 0 0 0 0 0 2 1 0 0 1 0 0 0 0 0 0 0 1 0 3 0 2 0 0 0 0 0 0 0 0 0 0 0 1 0 0 0 0 0 0 0 0 0 0 0 0 0 0 0 0 0 0 0 1 0 1 0 0 1 0 0 1 0 0 0 0 0 0 0 0 0 1 0 0 0 0 0 1 0 0 0 0 0 0 0 0 0 0 0 1 0 0 0 0 0 1 0 0 0 0 0 0 0 0 0 0 0 1 0 1 0 1 0 0 0 0 0 0 0 0 0 0 0 0 0 0 0 0 0 0 0 0 0 0 0 0 0 0 0 0 0 0 0 0 0 0 0 0 0 0 0 0 0 0 0 1 0 0 0 0 0 0 0 0 0 0 0 0 0 0 0 0 0 0 0 0 0 0 0 0 0 0 0 0 0 0 0 0 0 0 0 0 0 0 0 0 0 0 0 0 0 0 0 0 0 0 0 0 0 0 0 0 0 0 0 0 0 0 0 0 0 0 0 0 0 0 0 0 0 0 0 0 0 0 0 0 0 0 0 0 0 0 0 0 0 0 0 0 0 0 0 0 0 0 0 0 0 0 0 0 0 0 0 0 0 0 0 0 0 0 0 0 0 0 0 0 0 0 0 0 0 0 0 0 0 0 0 0 0 0 0 0 0 0 0 0 0 0 0 0 0 0 0 0 0 0 0 0 0 0 0 0 0 0 0 0 0 0 0 0 0 0 0 0 0 0 0 0 0 0 0 0 0 0 0 0 0 0 0 0 0 0 0 0 0 0 0 0 0 0 0 0 0 0 0 0 0 0 0 0 0 0 0 0 0 0 0 0 0 0 0 0 0 0 0 0 0 0 0 0 0 0 0 0 0 0 0 0 0 0 0 0 0 0 0 0 0 0 0 0 0 0 0 0 0 0 0 0 0 0 0 0 0 0 0 0 0 0 0 0 0 0 0 0 0 0 0 0 0 0 0 0 0 0 0 0 0 0 0 0 0 0 0 0 0 0 0 0 0 0 0 0 0 0 0 0 0 0 0 0 0 0 0 0 0 0 0 0 0 0 0 0 0 0 0 0 0 0 0 0 0 0 0 0 0 0 0 0 0 0 0 0 0 0 0 0 0 0 0 0 0 0 0 0 0 0 0 0 0 0 0 0 0 0 0 0 0 0 0 0 0 0 0 0 0 0 0 0 0 0 0 0 0 0 0 0 0 0 0 0 0 0 0 0 0 0 0 0 0 0 0 0 0 0 0 0 0 0 0 0 0 0 0 0 0 0 0 0 0 0 0 0 0 0 0 0 0 0 0 0 0 0 0 0 0 0 0 0 0 0 0 0 0 0 0 0 0 0 0 0 0 0 0 0 0 0 0 0 0 0 0 0 0 0 0 0 0 0 0 0 0 0 0 0 0 0 0 0 0 0 0 0 0 0 0 0 0 0 0 0 0 0 0 0 0 0 0 0 0 0 0 0 0 0 0 0 0 0 0 0 0 0 0 0 0 0 0 0 0 0 0 0 0 0 0 0 0 0 0 0 0 0 0 0 0 0 ];
Traffic[0]class1Average hops = 1 (4441866 samples)
traffic_manager/hop_stats_freq = [ 0 4441866 0 0 0 0 0 0 0 0 0 0 0 0 0 0 0 0 0 0 ];
=======Traffic[1]class0 ======
Traffic[1]class0Overall average latency = 8.10849 (3 samples)
Traffic[1]class0Overall average accepted rate = 0.00807374 (3 samples)
Traffic[1]class0Overall min accepted rate = 0 (3 samples)
traffic_manager/latency_stat_0_freq = [ 0 14962 258 63985 753 2032331 34332 2565 45928 4493 1496 2223 1286 1052 1649 905 1319 939 735 611 705 783 477 550 618 426 631 465 302 367 367 313 273 312 188 257 309 140 152 125 127 137 94 90 87 116 125 50 77 45 32 92 18 15 7 15 27 13 13 6 5 5 1 0 4 2 4 2 0 0 0 9 0 0 0 0 0 0 0 0 0 0 0 0 0 0 0 0 0 0 0 0 0 0 0 0 0 0 0 0 0 0 0 0 0 0 0 0 0 0 0 0 0 0 0 0 0 0 0 0 0 0 0 0 0 0 0 0 0 0 0 0 0 0 0 0 0 0 0 0 0 0 0 0 0 0 0 0 0 0 0 0 0 0 0 0 0 0 0 0 0 0 0 0 0 0 0 0 0 0 0 0 0 0 0 0 0 0 0 0 0 0 0 0 0 0 0 0 0 0 0 0 0 0 0 0 0 0 0 0 0 0 0 0 0 0 0 0 0 0 0 0 0 0 0 0 0 0 0 0 0 0 0 0 0 0 0 0 0 0 0 0 0 0 0 0 0 0 0 0 0 0 0 0 0 0 0 0 0 0 0 0 0 0 0 0 0 0 0 0 0 0 0 0 0 0 0 0 0 0 0 0 0 0 0 0 0 0 0 0 0 0 0 0 0 0 0 0 0 0 0 0 0 0 0 0 0 0 0 0 0 0 0 0 0 0 0 0 0 0 0 0 0 0 0 0 0 0 0 0 0 0 0 0 0 0 0 0 0 0 0 0 0 0 0 0 0 0 0 0 0 0 0 0 0 0 0 0 0 0 0 0 0 0 0 0 0 0 0 0 0 0 0 0 0 0 0 0 0 0 0 0 0 0 0 0 0 0 0 0 0 0 0 0 0 0 0 0 0 0 0 0 0 0 0 0 0 0 0 0 0 0 0 0 0 0 0 0 0 0 0 0 0 0 0 0 0 0 0 0 0 0 0 0 0 0 0 0 0 0 0 0 0 0 0 0 0 0 0 0 0 0 0 0 0 0 0 0 0 0 0 0 0 0 0 0 0 0 0 0 0 0 0 0 0 0 0 0 0 0 0 0 0 0 0 0 0 0 0 0 0 0 0 0 0 0 0 0 0 0 0 0 0 0 0 0 0 0 0 0 0 0 0 0 0 0 0 0 0 0 0 0 0 0 0 0 0 0 0 0 0 0 0 0 0 0 0 0 0 0 0 0 0 0 0 0 0 0 0 0 0 0 0 0 0 0 0 0 0 0 0 0 0 0 0 0 0 0 0 0 0 0 0 0 0 0 0 0 0 0 0 0 0 0 0 0 0 0 0 0 0 0 0 0 0 0 0 0 0 0 0 0 0 0 0 0 0 0 0 0 0 0 0 0 0 0 0 0 0 0 0 0 0 0 0 0 0 0 0 0 0 0 0 0 0 0 0 0 0 0 0 0 0 0 0 0 0 0 0 0 0 0 0 0 0 0 0 0 0 0 0 0 0 0 0 0 0 0 0 0 0 0 0 0 0 0 0 0 0 0 0 0 0 0 0 0 0 0 0 0 0 0 0 0 0 0 0 0 0 0 0 0 0 0 0 0 0 0 0 0 0 0 0 0 0 0 0 0 0 0 0 0 0 0 0 0 0 0 0 0 0 0 0 0 0 0 0 0 0 0 0 0 0 0 0 0 0 0 0 0 0 0 0 0 0 0 0 0 0 0 0 0 0 0 0 0 0 0 0 0 0 0 0 0 0 0 0 0 0 0 0 0 0 0 0 0 0 0 0 0 0 0 0 0 0 0 0 0 0 0 0 0 0 0 0 0 0 0 0 0 0 0 0 0 0 0 0 0 0 0 0 0 0 0 0 0 0 0 0 0 0 0 0 0 0 0 0 0 0 0 0 0 0 0 0 0 0 0 0 0 0 0 0 0 0 0 0 0 0 0 0 0 0 0 0 0 0 0 0 0 0 0 0 0 0 0 0 0 0 0 0 0 0 0 0 0 0 0 0 0 0 0 0 0 0 0 0 0 0 0 0 0 0 0 0 0 0 0 0 0 0 0 0 0 0 0 0 0 0 0 0 0 0 0 0 0 0 0 0 0 0 0 0 0 0 0 0 0 0 0 0 0 0 0 0 0 0 0 0 0 0 0 0 0 0 0 0 0 0 0 0 0 0 0 0 0 0 0 0 0 0 0 0 0 0 0 0 0 0 0 0 0 0 0 0 0 0 0 0 0 0 0 0 0 0 0 0 0 0 0 0 0 0 0 0 0 0 0 0 0 ];
Traffic[1]class1Average hops = 1 (4441866 samples)
traffic_manager/hop_stats_freq = [ 0 4441866 0 0 0 0 0 0 0 0 0 0 0 0 0 0 0 0 0 0 ];
----------------------------END-of-Interconnect-DETAILS-------------------------

gpgpu_simulation_time = 1 days, 4 hrs, 25 min, 18 sec (102318 sec)
gpgpu_simulation_rate = 522292 (inst/sec)
gpgpu_simulation_rate = 921 (cycle/sec)
GPGPU-Sim: synchronize waiting for inactive GPU simulation
GPGPU-Sim API: Stream Manager State
GPGPU-Sim: detected inactive GPU simulation thread
