

        *** GPGPU-Sim Simulator Version 3.2.1  [build 15629] ***


               1=functional simulation only, 0=detailed performance simulator)
GPGPU-Sim: Configuration options:

-network_mode                           1 # Interconnection network mode
-inter_config_file   config_fermi_islip.icnt # Interconnection network config file
-gpgpu_ptx_use_cuobjdump                    1 # Use cuobjdump to extract ptx and sass from binaries
-gpgpu_experimental_lib_support                    0 # Try to extract code from cuda libraries [Broken because of unknown cudaGetExportTable]
-gpgpu_ptx_convert_to_ptxplus                    0 # Convert SASS (native ISA) to ptxplus and run ptxplus
-gpgpu_ptx_force_max_capability                   20 # Force maximum compute capability
-gpgpu_ptx_inst_debug_to_file                    0 # Dump executed instructions' debug information to file
-gpgpu_ptx_inst_debug_file       inst_debug.txt # Executed instructions' debug output file
-gpgpu_ptx_inst_debug_thread_uid                    1 # Thread UID for executed instructions' debug output
-gpgpu_simd_model                       1 # 1 = post-dominator
-gpgpu_shader_core_pipeline              1536:32 # shader core pipeline config, i.e., {<nthread>:<warpsize>}
-gpgpu_tex_cache:l1  4:128:24,L:R:m:N,F:128:4,128:2 # per-shader L1 texture cache  (READ-ONLY) config  {<nsets>:<bsize>:<assoc>,<rep>:<wr>:<alloc>:<wr_alloc>,<mshr>:<N>:<merge>,<mq>:<rf>}
-gpgpu_const_cache:l1 64:64:2,L:R:f:N,A:2:32,4 # per-shader L1 constant memory cache  (READ-ONLY) config  {<nsets>:<bsize>:<assoc>,<rep>:<wr>:<alloc>:<wr_alloc>,<mshr>:<N>:<merge>,<mq>} 
-gpgpu_cache:il1     4:128:4,L:R:f:N,A:2:32,4 # shader L1 instruction cache config  {<nsets>:<bsize>:<assoc>,<rep>:<wr>:<alloc>:<wr_alloc>,<mshr>:<N>:<merge>,<mq>} 
-gpgpu_cache:dl1     32:128:4,L:L:m:N,A:32:8,8 # per-shader L1 data cache config  {<nsets>:<bsize>:<assoc>,<rep>:<wr>:<alloc>:<wr_alloc>,<mshr>:<N>:<merge>,<mq> | none}
-gpgpu_perfect_mem                      0 # enable perfect memory mode (no cache miss)
-n_regfile_gating_group                    4 # group of lanes that should be read/written together)
-gpgpu_clock_gated_reg_file                    0 # enable clock gated reg file for power calculations
-gpgpu_clock_gated_lanes                    0 # enable clock gated lanes for power calculations
-gpgpu_shader_registers                32768 # Number of registers per shader core. Limits number of concurrent CTAs. (default 8192)
-gpgpu_shader_cta                       8 # Maximum number of concurrent CTAs in shader (default 8)
-gpgpu_n_clusters                      14 # number of processing clusters
-gpgpu_n_cores_per_cluster                    1 # number of simd cores per cluster
-gpgpu_n_cluster_ejection_buffer_size                    8 # number of packets in ejection buffer
-gpgpu_n_ldst_response_buffer_size                    2 # number of response packets in ld/st unit ejection buffer
-gpgpu_shmem_size                   16384 # Size of shared memory per shader core (default 16kB)
-gpgpu_shmem_num_banks                   32 # Number of banks in the shared memory in each shader core (default 16)
-gpgpu_shmem_limited_broadcast                    0 # Limit shared memory to do one broadcast per cycle (default on)
-gpgpu_shmem_warp_parts                    1 # Number of portions a warp is divided into for shared memory bank conflict check 
-gpgpu_warpdistro_shader                   -1 # Specify which shader core to collect the warp size distribution from
-gpgpu_warp_issue_shader                    0 # Specify which shader core to collect the warp issue distribution from
-gpgpu_local_mem_map                    1 # Mapping from local memory space address to simulated GPU physical address space (default = enabled)
-gpgpu_num_reg_banks                   16 # Number of register banks (default = 8)
-gpgpu_reg_bank_use_warp_id                    0 # Use warp ID in mapping registers to banks (default = off)
-gpgpu_operand_collector_num_units_sp                    6 # number of collector units (default = 4)
-gpgpu_operand_collector_num_units_sfu                    8 # number of collector units (default = 4)
-gpgpu_operand_collector_num_units_mem                    2 # number of collector units (default = 2)
-gpgpu_operand_collector_num_units_gen                    0 # number of collector units (default = 0)
-gpgpu_operand_collector_num_in_ports_sp                    2 # number of collector unit in ports (default = 1)
-gpgpu_operand_collector_num_in_ports_sfu                    1 # number of collector unit in ports (default = 1)
-gpgpu_operand_collector_num_in_ports_mem                    1 # number of collector unit in ports (default = 1)
-gpgpu_operand_collector_num_in_ports_gen                    0 # number of collector unit in ports (default = 0)
-gpgpu_operand_collector_num_out_ports_sp                    2 # number of collector unit in ports (default = 1)
-gpgpu_operand_collector_num_out_ports_sfu                    1 # number of collector unit in ports (default = 1)
-gpgpu_operand_collector_num_out_ports_mem                    1 # number of collector unit in ports (default = 1)
-gpgpu_operand_collector_num_out_ports_gen                    0 # number of collector unit in ports (default = 0)
-gpgpu_coalesce_arch                   13 # Coalescing arch (default = 13, anything else is off for now)
-gpgpu_num_sched_per_core                    2 # Number of warp schedulers per core
-gpgpu_max_insn_issue_per_warp                    1 # Max number of instructions that can be issued per warp in one cycle by scheduler
-gpgpu_simt_core_sim_order                    1 # Select the simulation order of cores in a cluster (0=Fix, 1=Round-Robin)
-gpgpu_pipeline_widths        2,1,1,2,1,1,2 # Pipeline widths ID_OC_SP,ID_OC_SFU,ID_OC_MEM,OC_EX_SP,OC_EX_SFU,OC_EX_MEM,EX_WB
-gpgpu_num_sp_units                     2 # Number of SP units (default=1)
-gpgpu_num_sfu_units                    1 # Number of SF units (default=1)
-gpgpu_num_mem_units                    1 # Number if ldst units (default=1) WARNING: not hooked up to anything
-gpgpu_scheduler                      lrr # Scheduler configuration: < lrr | gto | two_level_active > If two_level_active:<num_active_warps>:<inner_prioritization>:<outer_prioritization>For complete list of prioritization values see shader.h enum scheduler_prioritization_typeDefault: gto
-gpgpu_dram_scheduler                    1 # 0 = fifo, 1 = FR-FCFS (defaul)
-gpgpu_dram_partition_queues              8:8:8:8 # i2$:$2d:d2$:$2i
-l2_ideal                               0 # Use a ideal L2 cache that always hit
-gpgpu_cache:dl2     64:128:16,L:B:m:W,A:32:4,4 # unified banked L2 data cache config  {<nsets>:<bsize>:<assoc>,<rep>:<wr>:<alloc>:<wr_alloc>,<mshr>:<N>:<merge>,<mq>}
-gpgpu_cache:dl2_texture_only                    0 # L2 cache used for texture only
-gpgpu_n_mem                            5 # number of memory modules (e.g. memory controllers) in gpu
-gpgpu_n_mem_per_ctrlr                    2 # number of memory chips per memory controller
-gpgpu_memlatency_stat                   14 # track and display latency statistics 0x2 enables MC, 0x4 enables queue logs
-gpgpu_frfcfs_dram_sched_queue_size                   16 # 0 = unlimited (default); # entries per chip
-gpgpu_dram_return_queue_size                    0 # 0 = unlimited (default); # entries per chip
-gpgpu_dram_buswidth                    4 # default = 4 bytes (8 bytes per cycle at DDR)
-gpgpu_dram_burst_length                    8 # Burst length of each DRAM request (default = 4 data bus cycle)
-dram_data_command_freq_ratio                    4 # Frequency ratio between DRAM data bus and command bus (default = 2 times, i.e. DDR)
-gpgpu_dram_timing_opt nbk=16:CCD=2:RRD=6:RCD=12:RAS=28:RP=12:RC=40: CL=12:WL=4:CDLR=5:WR=12:nbkgrp=4:CCDL=3:RTPL=2 # DRAM timing parameters = {nbk:tCCD:tRRD:tRCD:tRAS:tRP:tRC:CL:WL:tCDLR:tWR:nbkgrp:tCCDL:tRTPL}
-rop_latency                           80 # ROP queue latency (default 85)
-dram_latency                          67 # DRAM latency (default 30)
-gpgpu_mem_addr_mapping dramid@8;00000000.00000000.00000000.00000000.0000RRRR.RRRRRRRR.BBBBCCCC.CCSSSSSS # mapping memory address to dram model {dramid@<start bit>;<memory address map>}
-gpgpu_mem_addr_test                    0 # run sweep test to check address mapping for aliased address
-gpgpu_mem_address_mask                    1 # 0 = old addressing mask, 1 = new addressing mask, 2 = new add. mask + flipped bank sel and chip sel bits
-gpuwattch_xml_file         gpuwattch.xml # GPUWattch XML file
-power_simulation_enabled                    1 # Turn on power simulator (1=On, 0=Off)
-power_per_cycle_dump                    0 # Dump detailed power output each cycle
-power_trace_enabled                    1 # produce a file for the power trace (1=On, 0=Off)
-power_trace_zlevel                     6 # Compression level of the power trace output log (0=no comp, 9=highest)
-steady_power_levels_enabled                    0 # produce a file for the steady power levels (1=On, 0=Off)
-steady_state_definition                  8:4 # allowed deviation:number of samples
-gpgpu_max_cycle                        0 # terminates gpu simulation early (0 = no limit)
-gpgpu_max_insn                         0 # terminates gpu simulation early (0 = no limit)
-gpgpu_max_cta                          0 # terminates gpu simulation early (0 = no limit)
-gpgpu_runtime_stat                   500 # display runtime statistics such as dram utilization {<freq>:<flag>}
-gpgpu_flush_l1_cache                    0 # Flush L1 cache at the end of each kernel call
-gpgpu_flush_l2_cache                    0 # Flush L2 cache at the end of each kernel call
-gpgpu_deadlock_detect                    1 # Stop the simulation at deadlock (1=on (default), 0=off)
-gpgpu_ptx_instruction_classification                    0 # if enabled will classify ptx instruction types per kernel (Max 255 kernels now)
-gpgpu_ptx_sim_mode                     0 # Select between Performance (default) or Functional simulation (1)
-gpgpu_clock_domains 400.0:800.0:400.0:900.0 # Clock Domain Frequencies in MhZ {<Core Clock>:<ICNT Clock>:<L2 Clock>:<DRAM Clock>}
-gpgpu_max_concurrent_kernel                    8 # maximum kernels that can run concurrently on GPU
-gpgpu_cflog_interval                    0 # Interval between each snapshot in control flow logger
-visualizer_enabled                     0 # Turn on visualizer output (1=On, 0=Off)
-visualizer_outputfile                 NULL # Specifies the output log file for visualizer
-visualizer_zlevel                      6 # Compression level of the visualizer output log (0=no comp, 9=highest)
-trace_enabled                          0 # Turn on traces
-trace_components                    none # comma seperated list of traces to enable. Complete list found in trace_streams.tup. Default none
-trace_sampling_core                    0 # The core which is printed using CORE_DPRINTF. Default 0
-enable_ptx_file_line_stats                    1 # Turn on PTX source line statistic profiling. (1 = On)
-ptx_line_stats_filename gpgpu_inst_stats.txt # Output file for PTX source line statistics.
-save_embedded_ptx                      0 # saves ptx files embedded in binary as <n>.ptx
-keep                                   0 # keep intermediate files created by GPGPU-Sim when interfacing with external programs
-gpgpu_ptx_save_converted_ptxplus                    0 # Saved converted ptxplus to a file
-ptx_opcode_latency_int         4,13,4,5,145 # Opcode latencies for integers <ADD,MAX,MUL,MAD,DIV>Default 1,1,19,25,145
-ptx_opcode_latency_fp          4,13,4,5,39 # Opcode latencies for single precision floating points <ADD,MAX,MUL,MAD,DIV>Default 1,1,1,1,30
-ptx_opcode_latency_dp         8,19,8,8,330 # Opcode latencies for double precision floating points <ADD,MAX,MUL,MAD,DIV>Default 8,8,8,8,335
-ptx_opcode_initiation_int            1,2,2,1,8 # Opcode initiation intervals for integers <ADD,MAX,MUL,MAD,DIV>Default 1,1,4,4,32
-ptx_opcode_initiation_fp            1,2,1,1,4 # Opcode initiation intervals for single precision floating points <ADD,MAX,MUL,MAD,DIV>Default 8e861f66176933a12b54443c34ccb431  /tmp/tmp.fhbN91UNyy/cutcp__SIZE1_1
1,1,1,1,5
-ptx_opcode_initiation_dp         8,16,8,8,130 # Opcode initiation intervals for double precision floating points <ADD,MAX,MUL,MAD,DIV>Default 8,8,8,8,130
DRAM Timing Options:
nbk                                    16 # number of banks
CCD                                     2 # column to column delay
RRD                                     6 # minimal delay between activation of rows in different banks
RCD                                    12 # row to column delay
RAS                                    28 # time needed to activate row
RP                                     12 # time needed to precharge (deactivate) row
RC                                     40 # row cycle time
CDLR                                    5 # switching from write to read (changes tWTR)
WR                                     12 # last data-in to row precharge
CL                                     12 # CAS latency
WL                                      4 # Write latency
nbkgrp                                  4 # number of bank groups
CCDL                                    3 # column to column delay between accesses to different bank groups
RTPL                                    2 # read to precharge delay between accesses to different bank groups
addr_dec_mask[CHIP]  = 0000000000000000 	high:64 low:0
addr_dec_mask[BK]    = 000000000000f000 	high:16 low:12
addr_dec_mask[ROW]   = 000000000fff0000 	high:28 low:16
addr_dec_mask[COL]   = 0000000000000fff 	high:12 low:0
addr_dec_mask[BURST] = 000000000000003f 	high:6 low:0
*** Initializing Memory Statistics ***
self exe links to: /tmp/tmp.fhbN91UNyy/cutcp__SIZE1_1
Running md5sum using "md5sum /tmp/tmp.fhbN91UNyy/cutcp__SIZE1_1 "
Running cuobjdump using "$CUDA_INSTALL_PATH/bin/cuobjdump -ptx -elf -sass /tmp/tmp.fhbN91UNyy/cutcp__SIZE1_1 > _cuobjdump_complete_output_AgdHBp"
Parsing file _cuobjdump_complete_output_AgdHBp
######### cuobjdump parser ########
## Adding new section PTX
Adding ptx filename: _cuobjdump_1.ptx
Adding arch: sm_13
Adding identifier: benchmarks/cutcp/cutcp.cu
## Adding new section ELF
Adding arch: sm_13
Adding identifier: benchmarks/cutcp/cutcp.cu
Done parsing!!!
Adding _cuobjdump_1.ptx with cubin handle 1
Running: cat _ptx_Z9c6u4 | sed 's/.version 1.5/.version 1.4/' | sed 's/, texmode_independent//' | sed 's/\(\.extern \.const\[1\] .b8 \w\+\)\[\]/\1\[1\]/' | sed 's/const\[.\]/const\[0\]/g' > _ptx2_BWQvoJ
GPGPU-Sim PTX registering constant NbrListLen (4 bytes) to name mapping
GPGPU-Sim PTX registering constant NbrList (15972 bytes) to name mapping
read 96603 atoms from file '/home/cnugteren/software/parboil-2.5/datasets/cutcp/large/input/watbox.sl100.pqr'
extent of domain is:
  minimum -49.998 -49.997 -49.996
  maximum 50 49.99 49.971
padding domain by 0.5 Angstroms
domain lengths are 100.998 by 100.987 by 100.967

Invoking CUDA kernel on 2 region planes...
  computing plane 0
kernel '_Z29cuda_cutoff_potential_latticeiiP6float4fffPfi' transfer to GPU hardware scheduler
kernel_name = _Z29cuda_cutoff_potential_latticeiiP6float4fffPfi 
kernel_launch_uid = 1 
gpu_sim_cycle = 18231668
gpu_sim_insn = 12113348856
gpu_ipc =     664.4125
gpu_tot_sim_cycle = 18231668
gpu_tot_sim_insn = 12113348856
gpu_tot_ipc =     664.4125
gpu_tot_issued_cta = 0
gpu_stall_dramfull = 9118
gpu_stall_icnt2sh    = 49405
gpu_total_sim_rate=614610
Cache L1D_000:	Size = 16384 B (32 Set x 4-way x 128 byte line)
		Access = 129310, Miss = 60078 (0.465), PendingHit = 311 (0.00241)
Cache L1D_001:	Size = 16384 B (32 Set x 4-way x 128 byte line)
		Access = 129980, Miss = 62118 (0.478), PendingHit = 75 (0.000577)
Cache L1D_002:	Size = 16384 B (32 Set x 4-way x 128 byte line)
		Access = 128640, Miss = 58202 (0.452), PendingHit = 223 (0.00173)
Cache L1D_003:	Size = 16384 B (32 Set x 4-way x 128 byte line)
		Access = 129310, Miss = 60604 (0.469), PendingHit = 78 (0.000603)
Cache L1D_004:	Size = 16384 B (32 Set x 4-way x 128 byte line)
		Access = 129980, Miss = 60099 (0.462), PendingHit = 104 (0.0008)
Cache L1D_005:	Size = 16384 B (32 Set x 4-way x 128 byte line)
		Access = 129310, Miss = 60729 (0.47), PendingHit = 400 (0.00309)
Cache L1D_006:	Size = 16384 B (32 Set x 4-way x 128 byte line)
		Access = 129980, Miss = 60140 (0.463), PendingHit = 87 (0.000669)
Cache L1D_007:	Size = 16384 B (32 Set x 4-way x 128 byte line)
		Access = 129310, Miss = 59201 (0.458), PendingHit = 309 (0.00239)
Cache L1D_008:	Size = 16384 B (32 Set x 4-way x 128 byte line)
		Access = 128640, Miss = 58160 (0.452), PendingHit = 147 (0.00114)
Cache L1D_009:	Size = 16384 B (32 Set x 4-way x 128 byte line)
		Access = 129310, Miss = 59197 (0.458), PendingHit = 111 (0.000858)
Cache L1D_010:	Size = 16384 B (32 Set x 4-way x 128 byte line)
		Access = 129310, Miss = 60846 (0.471), PendingHit = 324 (0.00251)
Cache L1D_011:	Size = 16384 B (32 Set x 4-way x 128 byte line)
		Access = 129980, Miss = 57026 (0.439), PendingHit = 1096 (0.00843)
Cache L1D_012:	Size = 16384 B (32 Set x 4-way x 128 byte line)
		Access = 129310, Miss = 59678 (0.462), PendingHit = 572 (0.00442)
Cache L1D_013:	Size = 16384 B (32 Set x 4-way x 128 byte line)
		Access = 129310, Miss = 60803 (0.47), PendingHit = 342 (0.00264)
total_dl1_misses=836881
total_dl1_accesses=1811680
total_dl1_miss_rate= 0.461936
Shader 0 dynamic_warp_id issue ditsribution:
dynamic_warp_id:
0, 1, 2, 3, 4, 5, 6, 7, 8, 9, 10, 11, 12, 13, 14, 15, 16, 17, 18, 19, 20, 21, 22, 23, 24, 25, 26, 27, 28, 29, 30, 31, 32, 33, 34, 35, 36, 37, 38, 39, 40, 41, 42, 43, 44, 45, 46, 47, 48, 49, 50, 51, 52, 53, 54, 55, 56, 57, 58, 59, 60, 61, 62, 63, 64, 65, 66, 67, 68, 69, 70, 71, 72, 73, 74, 75, 76, 77, 78, 79, 80, 81, 82, 83, 84, 85, 86, 87, 88, 89, 90, 91, 92, 93, 94, 95, 96, 97, 98, 99, 100, 101, 102, 103, 104, 105, 106, 107, 108, 109, 110, 111, 112, 113, 114, 115, 116, 117, 118, 119, 120, 121, 122, 123, 124, 125, 126, 127, 128, 129, 130, 131, 132, 133, 134, 135, 136, 137, 138, 139, 140, 141, 142, 143, 144, 145, 146, 147, 148, 149, 150, 151, 152, 153, 154, 155, 156, 157, 158, 159, 160, 161, 162, 163, 164, 165, 166, 167, 168, 169, 170, 171, 172, 173, 174, 175, 176, 177, 178, 179, 180, 181, 182, 183, 184, 185, 186, 187, 188, 189, 190, 191, 192, 193, 194, 195, 196, 197, 198, 199, 200, 201, 202, 203, 204, 205, 206, 207, 208, 209, 210, 211, 212, 213, 214, 215, 216, 217, 218, 219, 220, 221, 222, 223, 224, 225, 226, 227, 228, 229, 230, 231, 232, 233, 234, 235, 236, 237, 238, 239, 240, 241, 242, 243, 244, 245, 246, 247, 248, 249, 250, 251, 252, 253, 254, 255, 256, 257, 258, 259, 260, 261, 262, 263, 264, 265, 266, 267, 268, 269, 270, 271, 272, 273, 274, 275, 276, 277, 278, 279, 280, 281, 282, 283, 284, 285, 286, 287, 288, 289, 290, 291, 292, 293, 294, 295, 296, 297, 298, 299, 300, 301, 302, 303, 304, 305, 306, 307, 308, 309, 310, 311, 312, 313, 314, 315, 316, 317, 318, 319, 320, 321, 322, 323, 324, 325, 326, 327, 328, 329, 330, 331, 332, 333, 334, 335, 336, 337, 338, 339, 340, 341, 342, 343, 344, 345, 346, 347, 348, 349, 350, 351, 352, 353, 354, 355, 356, 357, 358, 359, 360, 361, 362, 363, 364, 365, 366, 367, 368, 369, 370, 371, 372, 373, 374, 375, 376, 377, 378, 379, 380, 381, 382, 383, 384, 385, 386, 387, 388, 389, 390, 391, 392, 393, 394, 395, 396, 397, 398, 399, 400, 401, 402, 403, 404, 405, 406, 407, 408, 409, 410, 411, 412, 413, 414, 415, 416, 417, 418, 419, 420, 421, 422, 423, 424, 425, 426, 427, 428, 429, 430, 431, 432, 433, 434, 435, 436, 437, 438, 439, 440, 441, 442, 443, 444, 445, 446, 447, 448, 449, 450, 451, 452, 453, 454, 455, 456, 457, 458, 459, 460, 461, 462, 463, 464, 465, 466, 467, 468, 469, 470, 471, 472, 473, 474, 475, 476, 477, 478, 479, 480, 481, 482, 483, 484, 485, 486, 487, 488, 489, 490, 491, 492, 493, 494, 495, 496, 497, 498, 499, 500, 501, 502, 503, 504, 505, 506, 507, 508, 509, 510, 511, 512, 513, 514, 515, 516, 517, 518, 519, 520, 521, 522, 523, 524, 525, 526, 527, 528, 529, 530, 531, 532, 533, 534, 535, 536, 537, 538, 539, 540, 541, 542, 543, 544, 545, 546, 547, 548, 549, 550, 551, 552, 553, 554, 555, 556, 557, 558, 559, 560, 561, 562, 563, 564, 565, 566, 567, 568, 569, 570, 571, 572, 573, 574, 575, 576, 577, 578, 579, 580, 581, 582, 583, 584, 585, 586, 587, 588, 589, 590, 591, 592, 593, 594, 595, 596, 597, 598, 599, 600, 601, 602, 603, 604, 605, 606, 607, 608, 609, 610, 611, 612, 613, 614, 615, 616, 617, 618, 619, 620, 621, 622, 623, 624, 625, 626, 627, 628, 629, 630, 631, 632, 633, 634, 635, 636, 637, 638, 639, 640, 641, 642, 643, 644, 645, 646, 647, 648, 649, 650, 651, 652, 653, 654, 655, 656, 657, 658, 659, 660, 661, 662, 663, 664, 665, 666, 667, 668, 669, 670, 671, 672, 673, 674, 675, 676, 677, 678, 679, 680, 681, 682, 683, 684, 685, 686, 687, 688, 689, 690, 691, 692, 693, 694, 695, 696, 697, 698, 699, 700, 701, 702, 703, 704, 705, 706, 707, 708, 709, 710, 711, 712, 713, 714, 715, 716, 717, 718, 719, 720, 721, 722, 723, 724, 725, 726, 727, 728, 729, 730, 731, 732, 733, 734, 735, 736, 737, 738, 739, 740, 741, 742, 743, 744, 745, 746, 747, 748, 749, 750, 751, 752, 753, 754, 755, 756, 757, 758, 759, 760, 761, 762, 763, 764, 765, 766, 767, 768, 769, 770, 771, 
distro:
26494, 27007, 26647, 27232, 27377, 27926, 27521, 28133, 26045, 26432, 26108, 26594, 26588, 27182, 26687, 27281, 27194, 27725, 27374, 27878, 27349, 27997, 27475, 28069, 15458, 15674, 15512, 15755, 31397, 31838, 31604, 32072, 31901, 32243, 32072, 32423, 32558, 32990, 32711, 33170, 32228, 32732, 32435, 32939, 32532, 32982, 32694, 33090, 32591, 33068, 32735, 33266, 22036, 22333, 22090, 22486, 23404, 23584, 23530, 23719, 28078, 28276, 28267, 28465, 36858, 37146, 37047, 37344, 37298, 37595, 37442, 37955, 38069, 38600, 38294, 38825, 38436, 38751, 38652, 38967, 36031, 36265, 36274, 36499, 33077, 33401, 33266, 33599, 42237, 42282, 42543, 42453, 42257, 42239, 42464, 42437, 43232, 43286, 43448, 43511, 42450, 42531, 42693, 42792, 41531, 41540, 41756, 41720, 43114, 43114, 43357, 43294, 22444, 22381, 22588, 22552, 26336, 26291, 26462, 26426, 42959, 43085, 43292, 43292, 42948, 42948, 43209, 43200, 42277, 42403, 42529, 42628, 43197, 43242, 43476, 43539, 43036, 43081, 43216, 43342, 42725, 42743, 42977, 42914, 22594, 22648, 22756, 22783, 33089, 33161, 33269, 33314, 42368, 42404, 42593, 42611, 43181, 43289, 43451, 43523, 43391, 43454, 43670, 43724, 43539, 43611, 43791, 43854, 44056, 44191, 44362, 44335, 39139, 39193, 39418, 39418, 28472, 28454, 28607, 28580, 37999, 37999, 38179, 38197, 44379, 44370, 44631, 44640, 44800, 44719, 44989, 45016, 43206, 43296, 43449, 43539, 43931, 43949, 44129, 44183, 42856, 42892, 43099, 43153, 33302, 33365, 33518, 33608, 43900, 43747, 44053, 43990, 42787, 42760, 43039, 43111, 42667, 42586, 42928, 42928, 43494, 43494, 43737, 43764, 42834, 42861, 43032, 43113, 42037, 41992, 42226, 42298, 26241, 26313, 26394, 26421, 26790, 26835, 26889, 26925, 42309, 42372, 42543, 42633, 43489, 43453, 43768, 43669, 43121, 43112, 43382, 43382, 44505, 44325, 44685, 44667, 43424, 43406, 43712, 43649, 42652, 42751, 42967, 43012, 28198, 28189, 28387, 28306, 44392, 44302, 44581, 44608, 44797, 44806, 45040, 45004, 43132, 43141, 43384, 43402, 43406, 43415, 43685, 43685, 43946, 43901, 44162, 44081, 42412, 42358, 42637, 42664, 27296, 27278, 27386, 27341, 32055, 31992, 32190, 32163, 42968, 42959, 43184, 43211, 43290, 43209, 43479, 43434, 43758, 43695, 44064, 43965, 44108, 44027, 44324, 44225, 44005, 44041, 44284, 44230, 38180, 38207, 38414, 38405, 22827, 22845, 22944, 22980, 43334, 43325, 43694, 43613, 43901, 43874, 44162, 44099, 43473, 43374, 43779, 43653, 44210, 44156, 44426, 44336, 42310, 42247, 42589, 42490, 43452, 43587, 43686, 43785, 31903, 31858, 32101, 32029, 32605, 32605, 32767, 32794, 43336, 43255, 43579, 43516, 43295, 43088, 43502, 43376, 41283, 41175, 41562, 41454, 42035, 41918, 42269, 42161, 38331, 38295, 38601, 38592, 38817, 38817, 39042, 39105, 28779, 28806, 28914, 28959, 43111, 43309, 43309, 43507, 44182, 44281, 44461, 44479, 42175, 42112, 42445, 42337, 44178, 44196, 44430, 44439, 43614, 43542, 43875, 43767, 44317, 44245, 44533, 44542, 33433, 33532, 33586, 33649, 37847, 37883, 38054, 38171, 43733, 43679, 44012, 43922, 41284, 41293, 41536, 41536, 42346, 42319, 42499, 42517, 43818, 43872, 44034, 44106, 39037, 38938, 39262, 39145, 33237, 33138, 33381, 33372, 27691, 27772, 27862, 27943, 44606, 44453, 44849, 44705, 42730, 42766, 42955, 42973, 43195, 43141, 43402, 43438, 43302, 43302, 43590, 43608, 43815, 43770, 44103, 44013, 43457, 43313, 43691, 43610, 33706, 33706, 33913, 33913, 37789, 37735, 38023, 37978, 42842, 42725, 43049, 42977, 41658, 41649, 41955, 41919, 42171, 42072, 42369, 42243, 43430, 43367, 43700, 43628, 39534, 39561, 39741, 39750, 32872, 32881, 33133, 33016, 28137, 27957, 28272, 28137, 43262, 43289, 43514, 43568, 42945, 42954, 43152, 43179, 42174, 42336, 42426, 42561, 44295, 44331, 44520, 44619, 42915, 42906, 43212, 43185, 43194, 43176, 43401, 43419, 41921, 41777, 42227, 42065, 42162, 42189, 42459, 42459, 42745, 42691, 42997, 43006, 43251, 43368, 43458, 43557, 43294, 43258, 43510, 43546, 44012, 44102, 44237, 44327, 28610, 28601, 28736, 28727, 22565, 22529, 22718, 22610, 32887, 32941, 33112, 33094, 42524, 42488, 42848, 42821, 42468, 42495, 42756, 42747, 43014, 43023, 43338, 43311, 43549, 43495, 43864, 43783, 42493, 42412, 42817, 42727, 39160, 39259, 39412, 39475, 33015, 32988, 33249, 33150, 43065, 43110, 43254, 43389, 43862, 43844, 44078, 44114, 43312, 43321, 43546, 43609, 44140, 43951, 44383, 44248, 43880, 43889, 44150, 44213, 39457, 39358, 39646, 39628, 26220, 26292, 26337, 26472, 41892, 41937, 42189, 42126, 43832, 43850, 44102, 44093, 42688, 42571, 42904, 42778, 43638, 43575, 43863, 43845, 43289, 43388, 43559, 43658, 42156, 42147, 42426, 42381, 22883, 22973, 23072, 23081, 37880, 37682, 38078, 37925, 38285, 38159, 38564, 38384, 40041, 39699, 40374, 39969, 39738, 39657, 40017, 39873, 40836, 40530, 41079, 40782, 39694, 39541, 39973, 39766, 26224, 26035, 26368, 26188, 21088, 21025, 21232, 21097, 32459, 32144, 32630, 32333, 33710, 33332, 33854, 33548, 34764, 34260, 34953, 34494, 35144, 34802, 35360, 35000, 33846, 33513, 34008, 33702, 34464, 33987, 34635, 34194, 22571, 22472, 22724, 22589, 25471, 25075, 25624, 25210, 28993, 28570, 29164, 28687, 29517, 28914, 29652, 29121, 30245, 29660, 30371, 29804, 29019, 28488, 29145, 28641, 28447, 27979, 28600, 28159, 23323, 22909, 23449, 23035, 18950, 18617, 19058, 18716, 23665, 23098, 23818, 23134, 23593, 23098, 23719, 23197, 24405, 23739, 24558, 23847, 24327, 23769, 24426, 23913, 23963, 23360, 23999, 23387, 21739, 21316, 21865, 21406, 14367, 14133, 14430, 14160, 
gpgpu_n_tot_thrd_icount = 12911309440
gpgpu_n_tot_w_icount = 403478420
gpgpu_n_icache_hits = 219780655
gpgpu_n_icache_misses = 2043
gpgpu_n_l1dcache_read_hits = 970620
gpgpu_n_l1dcache_read_misses = 841060
gpgpu_n_l1dcache_write_accesses = 10816
gpgpu_n_l1dcache_wirte_misses = 10816
gpgpu_n_tcache_hits = 0
gpgpu_n_tcache_misses = 0
gpgpu_n_ccache_hits = 18206179
gpgpu_n_ccache_misses = 3633
gpgpu_n_stall_shd_mem = 2090286
gpgpu_n_mem_read_local = 0
gpgpu_n_mem_write_local = 0
gpgpu_n_mem_read_global = 836881
gpgpu_n_mem_write_global = 10816
gpgpu_n_mem_texture = 0
gpgpu_n_mem_const = 924
gpgpu_n_load_insn  = 57973760
gpgpu_n_store_insn = 692224
gpgpu_n_shmem_insn = 1435609022
gpgpu_n_tex_insn = 0
gpgpu_n_const_mem_insn = 87652864
gpgpu_n_param_mem_insn = 987034558
gpgpu_n_shmem_bkconflict = 0
gpgpu_n_cache_bkconflict = 0
gpgpu_n_intrawarp_mshr_merge = 0
gpgpu_n_cmem_portconflict = 283920
gpgpu_stall_shd_mem[c_mem][bk_conf] = 283920
gpgpu_stall_shd_mem[c_mem][mshr_rc] = 0
gpgpu_stall_shd_mem[c_mem][icnt_rc] = 0
gpgpu_stall_shd_mem[t_mem][mshr_rc] = 0
gpgpu_stall_shd_mem[t_mem][icnt_rc] = 0
gpgpu_stall_shd_mem[s_mem][bk_conf] = 903136
gpgpu_stall_shd_mem[gl_mem][bk_conf] = 0
gpgpu_stall_shd_mem[gl_mem][coal_stall] = 903230
gpgpu_stall_shd_mem[g_mem_ld][mshr_rc] = 0
gpgpu_stall_shd_mem[g_mem_ld][icnt_rc] = 0
gpgpu_stall_shd_mem[g_mem_ld][wb_icnt_rc] = 0
gpgpu_stall_shd_mem[g_mem_ld][wb_rsrv_fail] = 0
gpgpu_stall_shd_mem[g_mem_st][mshr_rc] = 0
gpgpu_stall_shd_mem[g_mem_st][icnt_rc] = 0
gpgpu_stall_shd_mem[g_mem_st][wb_icnt_rc] = 0
gpgpu_stall_shd_mem[g_mem_st][wb_rsrv_fail] = 0
gpgpu_stall_shd_mem[l_mem_ld][mshr_rc] = 0
gpgpu_stall_shd_mem[l_mem_ld][icnt_rc] = 0
gpgpu_stall_shd_mem[l_mem_ld][wb_icnt_rc] = 0
gpgpu_stall_shd_mem[l_mem_ld][wb_rsrv_fail] = 0
gpgpu_stall_shd_mem[l_mem_st][mshr_rc] = 0
gpgpu_stall_shd_mem[l_mem_st][icnt_rc] = 0
gpgpu_stall_shd_mem[l_mem_ld][wb_icnt_rc] = 0
gpgpu_stall_shd_mem[l_mem_ld][wb_rsrv_fail] = 0
gpu_reg_bank_conflict_stalls = 0
Warp Occupancy Distribution:
Stall:12225615	W0_Idle:111258	W0_Scoreboard:93859403	W1:1163250	W2:788031	W3:874305	W4:843480	W5:542115	W6:810153	W7:445527	W8:846018	W9:470268	W10:581112	W11:454743	W12:696015	W13:440748	W14:651438	W15:440217	W16:822593	W17:401139	W18:575964	W19:399249	W20:641556	W21:428319	W22:622890	W23:408276	W24:700578	W25:409419	W26:576828	W27:369378	W28:749367	W29:589293	W30:588303	W31:1062855	W32:384084993
maxmrqlatency = 30 
maxdqlatency = 0 
maxmflatency = 369 
averagemflatency = 89 
max_icnt2mem_latency = 210 
max_icnt2sh_latency = 18231667 
mrq_lat_table:19935 	1569 	2995 	4016 	325 	0 	0 	0 	0 	0 	0 	0 	0 	0 	0 	0 	0 	0 	0 	0 	0 	0 	0 	0 	0 	0 	0 	0 	0 	0 	0 	0 	
dq_lat_table:0 	0 	0 	0 	0 	0 	0 	0 	0 	0 	0 	0 	0 	0 	0 	0 	0 	0 	0 	0 	0 	0 	0 	0 	0 	0 	0 	0 	0 	0 	0 	0 	
mf_lat_table:0 	0 	0 	0 	0 	0 	826807 	21657 	157 	0 	0 	0 	0 	0 	0 	0 	0 	0 	0 	0 	0 	0 	0 	0 	0 	0 	0 	0 	0 	0 	0 	0 	
icnt2mem_lat_table:144 	836043 	11800 	206 	274 	181 	125 	30 	0 	0 	0 	0 	0 	0 	0 	0 	0 	0 	0 	0 	0 	0 	0 	0 	
icnt2sh_lat_table:0 	403587 	426695 	7489 	34 	0 	0 	0 	0 	0 	0 	0 	0 	0 	0 	0 	0 	168 	168 	360 	656 	1176 	2328 	4740 	
mf_lat_pw_table:1220 	0 	0 	0 	0 	0 	32924 	269 	0 	0 	0 	0 	0 	0 	0 	0 	0 	0 	0 	0 	0 	0 	0 	0 	0 	0 	0 	0 	0 	0 	0 	0 	
maximum concurrent accesses to same row:
dram[0]:        64        64        64        64        64        64        64        64        64        64        64        64        64        64        64        64 
dram[1]:        64        64        64        64        64        64        64        64        64        64        64        64        64        64        64        64 
dram[2]:        64        64        64        64        64        64        64        64        64        64        64        64        64        64        64        64 
dram[3]:        64        64        64        64        64        64        64        64        64        64        64        64        64        64        64        64 
dram[4]:        64        64        64        64        64        64        64        64        64        64        64        64        64        64        64        64 
maximum service time to same row:
dram[0]:   4571142   4557686   4689420   4557600   4556101   4784803   4676759   4426086   4605919   4641150   4518640   4506520   4631183   4569896   4436090   4555081 
dram[1]:   4571142   4555155   4689422   4557595   4556101   4784802   4676755   4426079   4605913   4641155   4520696   4506455   4631183   4569903   4437266   4555079 
dram[2]:   4571955   4561048   4687373   4559086   4577435   4789923   4679716   4424085   4641414   4663622   4493748   4501399   4636050   4567874   4436636   4559231 
dram[3]:   4564654   4559699   4687384   4551687   4577434   4789917   4689311   4424085   4641415   4663630   4440889   4531286   4636050   4567879   4444331   4559238 
dram[4]:   4560031   4566536   4687342   4545169   4609611   4788985   4693405   4389832   4648813   4660510   3887187   4541520   4636165   4565288   4436716   4575524 
average row accesses per activate:
dram[0]:  7.891304  8.186047  7.183673 10.057143 35.555557 29.090910 17.777779 18.105263 13.538462  9.894737  8.851064  9.454545 10.400000 11.870968 16.000000  8.000000 
dram[1]:  9.050000  7.333333  7.489362  8.186047 35.555557 29.090910 22.857143 18.105263 16.000000  8.545455  9.043478 10.146341 10.146341 11.030303 14.666667  7.822222 
dram[2]:  6.830189  7.822222  8.186047  7.652174 35.555557 29.090910 20.000000 20.352942 13.538462  9.894737  8.320000  9.674418 10.666667  9.282051 16.000000  7.489362 
dram[3]:  8.395349  7.652174  8.000000  8.186047 35.555557 24.615385 20.000000 23.066668 12.571428  9.500000  8.489796  9.904762 10.947369 11.677420 16.000000  7.333333 
dram[4]:  6.792453  8.186047  6.769231  7.954545 29.090910 29.090910 26.666666 20.352942 12.137931  9.268292  8.320000  9.454545  9.244445 10.400000 16.000000  8.186047 
average row locality = 28840/2672 = 10.793413
number of total memory accesses made:
dram[0]:         0         0         0         0         0         0         0         0         0         0         0         0         0         0         0         0 
dram[1]:         0         0         0         0         0         0         0         0         0         0         0         0         0         0         0         0 
dram[2]:         0         0         0         0         0         0         0         0         0         0         0         0         0         0         0         0 
dram[3]:         0         0         0         0         0         0         0         0         0         0         0         0         0         0         0         0 
dram[4]:         0         0         0         0         0         0         0         0         0         0         0         0         0         0         0         0 
total accesses: 0
min_bank_accesses = 0!
min_chip_accesses = 0!
number of total read accesses:
dram[0]:       235       224       224       224       192       192       192       216       224       236       256       256       256       232       224       224 
dram[1]:       234       224       224       224       192       192       192       216       224       236       256       256       256       230       224       224 
dram[2]:       234       224       224       224       192       192       192       218       224       236       256       256       256       228       224       224 
dram[3]:       233       224       224       224       192       192       192       218       224       238       256       256       256       228       224       224 
dram[4]:       232       224       224       222       192       192       192       218       224       238       256       256       256       230       224       224 
total reads: 18024
bank skew: 256/192 = 1.33
chip skew: 3607/3604 = 1.00
number of total write accesses:
dram[0]:       128       128       128       128       128       128       128       128       128       140       160       160       160       136       128       128 
dram[1]:       128       128       128       128       128       128       128       128       128       140       160       160       160       134       128       128 
dram[2]:       128       128       128       128       128       128       128       128       128       140       160       160       160       134       128       128 
dram[3]:       128       128       128       128       128       128       128       128       128       142       160       160       160       134       128       128 
dram[4]:       128       128       128       128       128       128       128       128       128       142       160       160       160       134       128       128 
total reads: 10816
bank skew: 160/128 = 1.25
chip skew: 2164/2162 = 1.00
average mf latency per bank:
dram[0]:       2649      2968      3379      2113      1922      2661      2158      2056      3378      2992      2272      2877      2684      1763      2894      3382
dram[1]:       2652      2982      3369      2094      1944      2664      2142      2057      3392      2984      2271      2881      2669      1778      2908      3372
dram[2]:       2665      2971      3373      2129      1933      2670      2160      2023      3387      3004      2267      2873      2699      1788      2892      3367
dram[3]:       2681      2957      3371      2161      1923      2660      2178      2006      3364      2984      2281      2870      2717      1801      2851      3379
dram[4]:       2683      2956      3382      2153      1919      2660      2175      2017      3365      2977      2299      2866      2708      1782      2866      3389
maximum mf latency per bank:
dram[0]:        205       180       180       179       215       189       177       268       251       180       240       254       179       211       235       178
dram[1]:        184       188       180       179       235       176       179       282       195       182       234       249       180       234       238       183
dram[2]:        179       179       181       178       226       187       181       312       199       180       227       193       179       200       369       178
dram[3]:        212       179       178       179       293       180       178       307       216       178       237       221       189       251       235       180
dram[4]:        228       178       185       180       255       218       180       271       205       178       352       217       183       251       226       189

Number of Memory Banks Accessed per Memory Operation per Warp (from 0):
0	0	0	0	0	0	0	0	0	0	0	0	0	0	0	0	0	0	0	0	0	0	0	0	0	0	0	0	0	0	0	0	0	0	0	0	0	0	0	0	0	0	0	0	0	0	0	0	0	0	0	0	0	0	0	0	0	0	0	0	0	0	0	0	0	0	0	0	0	0	0	0	0	0	0	0	0	0	0	0	
Average # of Memory Banks Accessed per Memory Operation per Warp=-nan

position of mrq chosen
0	0	0	0	0	0	0	0	0	0	0	0	0	0	0	0	

average position of mrq chosen = -nan
gpgpu_l2_write_miss = 0
gpgpu_l2_write_access = 0
gpgpu_l2_read_miss = 0
gpgpu_l2_read_access = 0
Cache L2_bank_000:
MSHR contents

DRAM[0]: 16 bks, busW=4 BL=8 CL=12, tRRD=2 tCCD=6, tRCD=12 tRAS=28 tRP=12 tRC=40
n_cmd=41021251 n_nop=41008679 n_act=523 n_pre=507 n_req=5771 n_rd=7214 n_write=4328 bw_util=0.0005627
n_activity=100239 dram_eff=0.2303
bk0: 470a 41018463i bk1: 448a 41018293i bk2: 448a 41018310i bk3: 448a 41018266i bk4: 384a 41018064i bk5: 384a 41018184i bk6: 384a 41018068i bk7: 432a 41018176i bk8: 448a 41017554i bk9: 472a 41017973i bk10: 512a 41017997i bk11: 512a 41018602i bk12: 512a 41016954i bk13: 464a 41016724i bk14: 448a 41016469i bk15: 448a 41004786i 
dram_util_bins: 0 0 0 0 0 0 0 0 0 0
dram_eff_bins: 0 0 0 0 0 0 0 0 0 0
mrqq: max=4 avg=0.000782546
Cache L2_bank_001:
MSHR contents
MSHR: tag=0x80151680, atomic=0 1 entries : 0x2aeb498dea10 :  mf: uid=239825916, sid04:w01, part=1, addr=0x80151680, load , size=128, unknown  status = IN_PARTITION_DRAM (18231667), 

DRAM[1]: 16 bks, busW=4 BL=8 CL=12, tRRD=2 tCCD=6, tRCD=12 tRAS=28 tRP=12 tRC=40
n_cmd=41021251 n_nop=41008679 n_act=528 n_pre=512 n_req=5766 n_rd=7208 n_write=4324 bw_util=0.0005622
n_activity=100361 dram_eff=0.2298
bk0: 468a 41018565i bk1: 448a 41018630i bk2: 448a 41018620i bk3: 448a 41018292i bk4: 384a 41017999i bk5: 384a 41018203i bk6: 384a 41018239i bk7: 432a 41018155i bk8: 448a 41017704i bk9: 472a 41017672i bk10: 512a 41017827i bk11: 512a 41018431i bk12: 512a 41016874i bk13: 460a 41016669i bk14: 448a 41016317i bk15: 448a 41004685i 
dram_util_bins: 0 0 0 0 0 0 0 0 0 0
dram_eff_bins: 0 0 0 0 0 0 0 0 0 0
mrqq: max=5 avg=0.000794929
Cache L2_bank_002:
MSHR contents
MSHR: tag=0x80151780, atomic=0 1 entries : 0x2aeb498de7a0 :  mf: uid=239825915, sid04:w03, part=2, addr=0x80151780, load , size=128, unknown  status = IN_PARTITION_DRAM (18231667), 

DRAM[2]: 16 bks, busW=4 BL=8 CL=12, tRRD=2 tCCD=6, tRCD=12 tRAS=28 tRP=12 tRC=40
n_cmd=41021251 n_nop=41008646 n_act=545 n_pre=529 n_req=5766 n_rd=7207 n_write=4324 bw_util=0.0005622
n_activity=100954 dram_eff=0.2284
bk0: 468a 41018411i bk1: 448a 41018390i bk2: 448a 41018439i bk3: 448a 41018393i bk4: 384a 41018091i bk5: 384a 41018112i bk6: 384a 41018101i bk7: 436a 41018357i bk8: 448a 41017506i bk9: 472a 41017805i bk10: 512a 41017670i bk11: 512a 41018588i bk12: 512a 41016895i bk13: 455a 41016808i bk14: 448a 41016390i bk15: 448a 41004326i 
dram_util_bins: 0 0 0 0 0 0 0 0 0 0
dram_eff_bins: 0 0 0 0 0 0 0 0 0 0
mrqq: max=3 avg=0.000777378
Cache L2_bank_003:
MSHR contents

DRAM[3]: 16 bks, busW=4 BL=8 CL=12, tRRD=2 tCCD=6, tRCD=12 tRAS=28 tRP=12 tRC=40
n_cmd=41021251 n_nop=41008673 n_act=528 n_pre=512 n_req=5769 n_rd=7210 n_write=4328 bw_util=0.0005625
n_activity=100542 dram_eff=0.2295
bk0: 466a 41018368i bk1: 448a 41018412i bk2: 448a 41018304i bk3: 448a 41018398i bk4: 384a 41018129i bk5: 384a 41018346i bk6: 384a 41018214i bk7: 436a 41018247i bk8: 448a 41017506i bk9: 476a 41017753i bk10: 512a 41017624i bk11: 512a 41018399i bk12: 512a 41016896i bk13: 456a 41016897i bk14: 448a 41016709i bk15: 448a 41004744i 
dram_util_bins: 0 0 0 0 0 0 0 0 0 0
dram_eff_bins: 0 0 0 0 0 0 0 0 0 0
mrqq: max=5 avg=0.000767358
Cache L2_bank_004:
MSHR contents

DRAM[4]: 16 bks, busW=4 BL=8 CL=12, tRRD=2 tCCD=6, tRCD=12 tRAS=28 tRP=12 tRC=40
n_cmd=41021251 n_nop=41008625 n_act=553 n_pre=537 n_req=5768 n_rd=7208 n_write=4328 bw_util=0.0005624
n_activity=101388 dram_eff=0.2276
bk0: 464a 41018256i bk1: 448a 41018093i bk2: 448a 41018333i bk3: 444a 41018518i bk4: 384a 41018106i bk5: 384a 41018204i bk6: 384a 41018222i bk7: 436a 41018491i bk8: 448a 41017847i bk9: 476a 41017861i bk10: 512a 41017827i bk11: 512a 41018505i bk12: 512a 41016899i bk13: 460a 41016693i bk14: 448a 41016458i bk15: 448a 41003809i 
dram_util_bins: 0 0 0 0 0 0 0 0 0 0
dram_eff_bins: 0 0 0 0 0 0 0 0 0 0
mrqq: max=5 avg=0.000782814
Cache L2_bank_000:	Size = 131072 B (64 Set x 16-way x 128 byte line)
		Access = 169763, Miss = 3607 (0.0212), PendingHit = 345 (0.00203)
Cache L2_bank_001:	Size = 131072 B (64 Set x 16-way x 128 byte line)
		Access = 169677, Miss = 3604 (0.0212), PendingHit = 344 (0.00203)
Cache L2_bank_002:	Size = 131072 B (64 Set x 16-way x 128 byte line)
		Access = 169752, Miss = 3604 (0.0212), PendingHit = 368 (0.00217)
Cache L2_bank_003:	Size = 131072 B (64 Set x 16-way x 128 byte line)
		Access = 169814, Miss = 3605 (0.0212), PendingHit = 373 (0.0022)
Cache L2_bank_004:	Size = 131072 B (64 Set x 16-way x 128 byte line)
		Access = 169797, Miss = 3604 (0.0212), PendingHit = 352 (0.00207)
L2 Cache Total Miss Rate = 0.021

icnt_total_pkts_mem_to_simt=4198903
icnt_total_pkts_simt_to_mem=892067

LD_mem_lat_dist  0 0 0 0 0 0 0 0 0 0 0 0 0 0 0 0 0 0 0 0 0 0 0 0 0 0 0
ST_mem_lat_dist  0 0 0 0 0 0 0 0 0 0 0 0 0 0 0 0 0 0 0 0 0 0 0 0 0 0 0
Traffic 0 Stat
%=================================
% Average latency = 1.07573
% Accepted packets = 0 at node 0 (avg = 0.00106369)
lat(1) = 1.07573;
thru(1,:) = [ 0 0 0 0 0 0 0 0 0 0 0 0 0 0 0.00489311 0.00489053 0.00489259 0.00489451 0.00489404 0 0 0 0 ];
% latency change    = 1
% throughput change = 1
Traffic 1 Stat
%=================================
% Average latency = 6.84631
% Accepted packets = 0 at node 14 (avg = 0.0050067)
lat(2) = 6.84631;
thru(2,:) = [ 0.00826652 0.00854637 0.00800917 0.00833865 0.00826951 0.00835579 0.00827513 0.00814627 0.00800341 0.00814572 0.00837183 0.00784813 0.00821167 0.00836594 0 0 0 0 0 0 0 0 0 ];
% latency change    = 0.842875
% throughput change = 0.787548
----------------------------Interconnect-DETAILS---------------------------------=======Traffic[0]class0 ======
Traffic[0]class0Overall average latency = 1.07573 (1 samples)
Traffic[0]class0Overall average accepted rate = 0.00106369 (1 samples)
Traffic[0]class0Overall min accepted rate = 0 (1 samples)
traffic_manager/latency_stat_0_freq = [ 0 832367 4963 204 136 7474 1106 397 1551 366 119 11 1 9 1 7 0 10 0 10 0 12 0 6 0 9 0 5 0 0 0 0 0 1 0 0 0 0 0 1 0 0 0 0 0 1 0 0 0 1 0 0 0 0 0 0 0 1 0 0 0 0 0 2 0 3 1 4 0 0 0 0 0 1 0 0 0 0 0 0 0 0 1 1 0 1 0 0 0 2 0 1 0 0 0 0 0 0 0 0 0 0 0 0 0 1 0 2 0 1 0 0 0 1 0 1 0 1 0 0 0 0 0 0 0 0 0 0 0 0 0 0 0 0 0 0 0 0 0 0 0 0 0 0 0 0 0 0 0 0 0 0 0 0 0 0 0 0 0 0 0 0 0 1 0 0 0 0 0 0 0 0 0 0 0 0 0 2 0 0 0 0 0 1 0 0 0 2 0 0 0 0 0 0 0 0 0 0 0 0 0 0 0 0 0 1 0 0 0 0 0 0 0 0 0 0 0 0 0 0 0 0 0 0 0 0 0 0 0 0 0 0 0 0 0 0 0 0 0 0 0 0 0 0 0 0 0 0 0 0 0 0 0 0 0 0 0 0 0 0 0 0 0 0 0 0 0 0 0 0 0 0 0 0 0 0 0 0 0 0 0 0 0 0 0 0 0 0 0 1 0 0 0 0 0 0 0 0 0 0 0 0 0 0 0 0 0 0 0 0 0 0 0 0 0 0 0 0 0 0 0 0 0 0 0 1 0 0 0 0 0 0 0 0 0 0 0 0 0 1 0 0 0 0 0 0 0 0 0 0 0 0 0 0 0 0 0 0 0 0 0 0 0 0 0 0 0 0 0 0 0 0 0 0 0 0 0 0 0 0 0 0 0 0 0 0 0 0 0 0 0 0 0 0 0 0 0 0 0 0 0 0 0 0 0 0 0 0 0 0 0 0 0 0 0 0 0 0 0 0 0 0 0 0 0 0 0 0 0 0 0 0 0 0 0 0 0 0 0 0 0 0 0 0 0 0 0 0 0 0 0 0 0 0 0 0 0 0 0 0 0 0 0 0 0 0 0 0 0 0 0 0 0 0 0 0 0 0 0 0 0 0 0 0 0 0 0 0 0 0 0 0 0 0 0 0 0 0 0 0 0 0 0 0 0 0 0 0 0 0 0 0 0 0 0 0 0 0 0 0 0 0 0 0 0 0 0 0 0 0 0 0 0 0 0 0 0 0 0 0 0 0 0 0 0 0 0 0 0 0 0 0 0 0 0 0 0 0 0 0 0 0 0 0 0 0 0 0 0 0 0 0 0 0 0 0 0 0 0 0 0 0 0 0 0 0 0 0 0 0 0 0 0 0 0 0 0 0 0 0 0 0 0 0 0 0 0 0 0 0 0 0 0 0 0 0 0 0 0 0 0 0 0 0 0 0 0 0 0 0 0 0 0 0 0 0 0 0 0 0 0 0 0 0 0 0 0 0 0 0 0 0 0 0 0 0 0 0 0 0 0 0 0 0 0 0 0 0 0 0 0 0 0 0 0 0 0 0 0 0 0 0 0 0 0 0 0 0 0 0 0 0 0 0 0 0 0 0 0 0 0 0 0 0 0 0 0 0 0 0 0 0 0 0 0 0 0 0 0 0 0 0 0 0 0 0 0 0 0 0 0 0 0 0 0 0 0 0 0 0 0 0 0 0 0 0 0 0 0 0 0 0 0 0 0 0 0 0 0 0 0 0 0 0 0 0 0 0 0 0 0 0 0 0 0 0 0 0 0 0 0 0 0 0 0 0 0 0 0 0 0 0 0 0 0 0 0 0 0 0 0 0 0 0 0 0 0 0 0 0 0 0 0 0 0 0 0 0 0 0 0 0 0 0 0 0 0 0 0 0 0 0 0 0 0 0 0 0 0 0 0 0 0 0 0 0 0 0 0 0 0 0 0 0 0 0 0 0 0 0 0 0 0 0 0 0 0 0 0 0 0 0 0 0 0 0 0 0 0 0 0 0 0 0 0 0 0 0 0 0 0 0 0 0 0 0 0 0 0 0 0 0 0 0 0 0 0 0 0 0 0 0 0 0 0 0 0 0 0 0 0 0 0 0 0 0 0 0 0 0 0 0 0 0 0 0 0 0 0 0 0 0 0 0 0 0 0 0 0 0 0 0 0 0 0 0 0 0 0 0 0 0 0 0 0 0 0 0 0 0 0 0 0 0 0 0 0 0 0 0 0 0 0 0 0 0 0 0 0 0 0 0 0 0 0 0 0 0 0 0 ];
Traffic[0]class1Average hops = 1 (848803 samples)
traffic_manager/hop_stats_freq = [ 0 848803 0 0 0 0 0 0 0 0 0 0 0 0 0 0 0 0 0 0 ];
=======Traffic[1]class0 ======
Traffic[1]class0Overall average latency = 6.84631 (1 samples)
Traffic[1]class0Overall average accepted rate = 0.0050067 (1 samples)
Traffic[1]class0Overall min accepted rate = 0 (1 samples)
traffic_manager/latency_stat_0_freq = [ 0 10374 131 521 136 394614 8567 11652 343736 20245 7107 6431 16257 7553 14476 790 3123 644 712 532 310 329 198 65 91 31 94 22 14 10 5 17 6 3 1 3 2 1 0 0 0 0 0 0 0 0 0 0 0 0 0 0 0 0 0 0 0 0 0 0 0 0 0 0 0 0 0 0 0 0 0 0 0 0 0 0 0 0 0 0 0 0 0 0 0 0 0 0 0 0 0 0 0 0 0 0 0 0 0 0 0 0 0 0 0 0 0 0 0 0 0 0 0 0 0 0 0 0 0 0 0 0 0 0 0 0 0 0 0 0 0 0 0 0 0 0 0 0 0 0 0 0 0 0 0 0 0 0 0 0 0 0 0 0 0 0 0 0 0 0 0 0 0 0 0 0 0 0 0 0 0 0 0 0 0 0 0 0 0 0 0 0 0 0 0 0 0 0 0 0 0 0 0 0 0 0 0 0 0 0 0 0 0 0 0 0 0 0 0 0 0 0 0 0 0 0 0 0 0 0 0 0 0 0 0 0 0 0 0 0 0 0 0 0 0 0 0 0 0 0 0 0 0 0 0 0 0 0 0 0 0 0 0 0 0 0 0 0 0 0 0 0 0 0 0 0 0 0 0 0 0 0 0 0 0 0 0 0 0 0 0 0 0 0 0 0 0 0 0 0 0 0 0 0 0 0 0 0 0 0 0 0 0 0 0 0 0 0 0 0 0 0 0 0 0 0 0 0 0 0 0 0 0 0 0 0 0 0 0 0 0 0 0 0 0 0 0 0 0 0 0 0 0 0 0 0 0 0 0 0 0 0 0 0 0 0 0 0 0 0 0 0 0 0 0 0 0 0 0 0 0 0 0 0 0 0 0 0 0 0 0 0 0 0 0 0 0 0 0 0 0 0 0 0 0 0 0 0 0 0 0 0 0 0 0 0 0 0 0 0 0 0 0 0 0 0 0 0 0 0 0 0 0 0 0 0 0 0 0 0 0 0 0 0 0 0 0 0 0 0 0 0 0 0 0 0 0 0 0 0 0 0 0 0 0 0 0 0 0 0 0 0 0 0 0 0 0 0 0 0 0 0 0 0 0 0 0 0 0 0 0 0 0 0 0 0 0 0 0 0 0 0 0 0 0 0 0 0 0 0 0 0 0 0 0 0 0 0 0 0 0 0 0 0 0 0 0 0 0 0 0 0 0 0 0 0 0 0 0 0 0 0 0 0 0 0 0 0 0 0 0 0 0 0 0 0 0 0 0 0 0 0 0 0 0 0 0 0 0 0 0 0 0 0 0 0 0 0 0 0 0 0 0 0 0 0 0 0 0 0 0 0 0 0 0 0 0 0 0 0 0 0 0 0 0 0 0 0 0 0 0 0 0 0 0 0 0 0 0 0 0 0 0 0 0 0 0 0 0 0 0 0 0 0 0 0 0 0 0 0 0 0 0 0 0 0 0 0 0 0 0 0 0 0 0 0 0 0 0 0 0 0 0 0 0 0 0 0 0 0 0 0 0 0 0 0 0 0 0 0 0 0 0 0 0 0 0 0 0 0 0 0 0 0 0 0 0 0 0 0 0 0 0 0 0 0 0 0 0 0 0 0 0 0 0 0 0 0 0 0 0 0 0 0 0 0 0 0 0 0 0 0 0 0 0 0 0 0 0 0 0 0 0 0 0 0 0 0 0 0 0 0 0 0 0 0 0 0 0 0 0 0 0 0 0 0 0 0 0 0 0 0 0 0 0 0 0 0 0 0 0 0 0 0 0 0 0 0 0 0 0 0 0 0 0 0 0 0 0 0 0 0 0 0 0 0 0 0 0 0 0 0 0 0 0 0 0 0 0 0 0 0 0 0 0 0 0 0 0 0 0 0 0 0 0 0 0 0 0 0 0 0 0 0 0 0 0 0 0 0 0 0 0 0 0 0 0 0 0 0 0 0 0 0 0 0 0 0 0 0 0 0 0 0 0 0 0 0 0 0 0 0 0 0 0 0 0 0 0 0 0 0 0 0 0 0 0 0 0 0 0 0 0 0 0 0 0 0 0 0 0 0 0 0 0 0 0 0 0 0 0 0 0 0 0 0 0 0 0 0 0 0 0 0 0 0 0 0 0 0 0 0 0 0 0 0 0 0 0 0 0 0 0 0 0 0 0 0 0 0 0 0 0 0 0 0 0 0 0 0 0 0 0 0 0 0 0 0 0 0 0 0 0 0 0 0 0 0 0 0 0 0 0 0 0 0 0 0 0 0 0 0 0 0 0 0 0 0 0 0 ];
Traffic[1]class1Average hops = 1 (848803 samples)
traffic_manager/hop_stats_freq = [ 0 848803 0 0 0 0 0 0 0 0 0 0 0 0 0 0 0 0 0 0 ];
----------------------------END-of-Interconnect-DETAILS-------------------------

gpgpu_simulation_time = 0 days, 5 hrs, 28 min, 29 sec (19709 sec)
gpgpu_simulation_rate = 614610 (inst/sec)
gpgpu_simulation_rate = 925 (cycle/sec)
  computing plane 1
kernel '_Z29cuda_cutoff_potential_latticeiiP6float4fffPfi' transfer to GPU hardware scheduler
kernel_name = _Z29cuda_cutoff_potential_latticeiiP6float4fffPfi 
kernel_launch_uid = 2 
gpu_sim_cycle = 22251791
gpu_sim_insn = 14760151048
gpu_ipc =     663.3242
gpu_tot_sim_cycle = 40483459
gpu_tot_sim_insn = 26873499904
gpu_tot_ipc =     663.8143
gpu_tot_issued_cta = 0
gpu_stall_dramfull = 14136
gpu_stall_icnt2sh    = 88842
gpu_total_sim_rate=547611
Cache L1D_000:	Size = 16384 B (32 Set x 4-way x 128 byte line)
		Access = 257950, Miss = 118657 (0.46), PendingHit = 1114 (0.00432)
Cache L1D_001:	Size = 16384 B (32 Set x 4-way x 128 byte line)
		Access = 259960, Miss = 123432 (0.475), PendingHit = 164 (0.000631)
Cache L1D_002:	Size = 16384 B (32 Set x 4-way x 128 byte line)
		Access = 258620, Miss = 118843 (0.46), PendingHit = 955 (0.00369)
Cache L1D_003:	Size = 16384 B (32 Set x 4-way x 128 byte line)
		Access = 259290, Miss = 117425 (0.453), PendingHit = 451 (0.00174)
Cache L1D_004:	Size = 16384 B (32 Set x 4-way x 128 byte line)
		Access = 258620, Miss = 116680 (0.451), PendingHit = 686 (0.00265)
Cache L1D_005:	Size = 16384 B (32 Set x 4-way x 128 byte line)
		Access = 258620, Miss = 118208 (0.457), PendingHit = 833 (0.00322)
Cache L1D_006:	Size = 16384 B (32 Set x 4-way x 128 byte line)
		Access = 259290, Miss = 119858 (0.462), PendingHit = 173 (0.000667)
Cache L1D_007:	Size = 16384 B (32 Set x 4-way x 128 byte line)
		Access = 259290, Miss = 115519 (0.446), PendingHit = 1738 (0.0067)
Cache L1D_008:	Size = 16384 B (32 Set x 4-way x 128 byte line)
		Access = 258620, Miss = 117793 (0.455), PendingHit = 557 (0.00215)
Cache L1D_009:	Size = 16384 B (32 Set x 4-way x 128 byte line)
		Access = 258620, Miss = 121131 (0.468), PendingHit = 227 (0.000878)
Cache L1D_010:	Size = 16384 B (32 Set x 4-way x 128 byte line)
		Access = 258620, Miss = 121894 (0.471), PendingHit = 431 (0.00167)
Cache L1D_011:	Size = 16384 B (32 Set x 4-way x 128 byte line)
		Access = 258620, Miss = 117606 (0.455), PendingHit = 1660 (0.00642)
Cache L1D_012:	Size = 16384 B (32 Set x 4-way x 128 byte line)
		Access = 257950, Miss = 118523 (0.459), PendingHit = 735 (0.00285)
Cache L1D_013:	Size = 16384 B (32 Set x 4-way x 128 byte line)
		Access = 259290, Miss = 121810 (0.47), PendingHit = 476 (0.00184)
total_dl1_misses=1667379
total_dl1_accesses=3623360
total_dl1_miss_rate= 0.460175
Shader 0 dynamic_warp_id issue ditsribution:
dynamic_warp_id:
0, 1, 2, 3, 4, 5, 6, 7, 8, 9, 10, 11, 12, 13, 14, 15, 16, 17, 18, 19, 20, 21, 22, 23, 24, 25, 26, 27, 28, 29, 30, 31, 32, 33, 34, 35, 36, 37, 38, 39, 40, 41, 42, 43, 44, 45, 46, 47, 48, 49, 50, 51, 52, 53, 54, 55, 56, 57, 58, 59, 60, 61, 62, 63, 64, 65, 66, 67, 68, 69, 70, 71, 72, 73, 74, 75, 76, 77, 78, 79, 80, 81, 82, 83, 84, 85, 86, 87, 88, 89, 90, 91, 92, 93, 94, 95, 96, 97, 98, 99, 100, 101, 102, 103, 104, 105, 106, 107, 108, 109, 110, 111, 112, 113, 114, 115, 116, 117, 118, 119, 120, 121, 122, 123, 124, 125, 126, 127, 128, 129, 130, 131, 132, 133, 134, 135, 136, 137, 138, 139, 140, 141, 142, 143, 144, 145, 146, 147, 148, 149, 150, 151, 152, 153, 154, 155, 156, 157, 158, 159, 160, 161, 162, 163, 164, 165, 166, 167, 168, 169, 170, 171, 172, 173, 174, 175, 176, 177, 178, 179, 180, 181, 182, 183, 184, 185, 186, 187, 188, 189, 190, 191, 192, 193, 194, 195, 196, 197, 198, 199, 200, 201, 202, 203, 204, 205, 206, 207, 208, 209, 210, 211, 212, 213, 214, 215, 216, 217, 218, 219, 220, 221, 222, 223, 224, 225, 226, 227, 228, 229, 230, 231, 232, 233, 234, 235, 236, 237, 238, 239, 240, 241, 242, 243, 244, 245, 246, 247, 248, 249, 250, 251, 252, 253, 254, 255, 256, 257, 258, 259, 260, 261, 262, 263, 264, 265, 266, 267, 268, 269, 270, 271, 272, 273, 274, 275, 276, 277, 278, 279, 280, 281, 282, 283, 284, 285, 286, 287, 288, 289, 290, 291, 292, 293, 294, 295, 296, 297, 298, 299, 300, 301, 302, 303, 304, 305, 306, 307, 308, 309, 310, 311, 312, 313, 314, 315, 316, 317, 318, 319, 320, 321, 322, 323, 324, 325, 326, 327, 328, 329, 330, 331, 332, 333, 334, 335, 336, 337, 338, 339, 340, 341, 342, 343, 344, 345, 346, 347, 348, 349, 350, 351, 352, 353, 354, 355, 356, 357, 358, 359, 360, 361, 362, 363, 364, 365, 366, 367, 368, 369, 370, 371, 372, 373, 374, 375, 376, 377, 378, 379, 380, 381, 382, 383, 384, 385, 386, 387, 388, 389, 390, 391, 392, 393, 394, 395, 396, 397, 398, 399, 400, 401, 402, 403, 404, 405, 406, 407, 408, 409, 410, 411, 412, 413, 414, 415, 416, 417, 418, 419, 420, 421, 422, 423, 424, 425, 426, 427, 428, 429, 430, 431, 432, 433, 434, 435, 436, 437, 438, 439, 440, 441, 442, 443, 444, 445, 446, 447, 448, 449, 450, 451, 452, 453, 454, 455, 456, 457, 458, 459, 460, 461, 462, 463, 464, 465, 466, 467, 468, 469, 470, 471, 472, 473, 474, 475, 476, 477, 478, 479, 480, 481, 482, 483, 484, 485, 486, 487, 488, 489, 490, 491, 492, 493, 494, 495, 496, 497, 498, 499, 500, 501, 502, 503, 504, 505, 506, 507, 508, 509, 510, 511, 512, 513, 514, 515, 516, 517, 518, 519, 520, 521, 522, 523, 524, 525, 526, 527, 528, 529, 530, 531, 532, 533, 534, 535, 536, 537, 538, 539, 540, 541, 542, 543, 544, 545, 546, 547, 548, 549, 550, 551, 552, 553, 554, 555, 556, 557, 558, 559, 560, 561, 562, 563, 564, 565, 566, 567, 568, 569, 570, 571, 572, 573, 574, 575, 576, 577, 578, 579, 580, 581, 582, 583, 584, 585, 586, 587, 588, 589, 590, 591, 592, 593, 594, 595, 596, 597, 598, 599, 600, 601, 602, 603, 604, 605, 606, 607, 608, 609, 610, 611, 612, 613, 614, 615, 616, 617, 618, 619, 620, 621, 622, 623, 624, 625, 626, 627, 628, 629, 630, 631, 632, 633, 634, 635, 636, 637, 638, 639, 640, 641, 642, 643, 644, 645, 646, 647, 648, 649, 650, 651, 652, 653, 654, 655, 656, 657, 658, 659, 660, 661, 662, 663, 664, 665, 666, 667, 668, 669, 670, 671, 672, 673, 674, 675, 676, 677, 678, 679, 680, 681, 682, 683, 684, 685, 686, 687, 688, 689, 690, 691, 692, 693, 694, 695, 696, 697, 698, 699, 700, 701, 702, 703, 704, 705, 706, 707, 708, 709, 710, 711, 712, 713, 714, 715, 716, 717, 718, 719, 720, 721, 722, 723, 724, 725, 726, 727, 728, 729, 730, 731, 732, 733, 734, 735, 736, 737, 738, 739, 740, 741, 742, 743, 744, 745, 746, 747, 748, 749, 750, 751, 752, 753, 754, 755, 756, 757, 758, 759, 760, 761, 762, 763, 764, 765, 766, 767, 768, 769, 770, 771, 772, 773, 774, 775, 776, 777, 778, 779, 780, 781, 782, 783, 784, 785, 786, 787, 788, 789, 790, 791, 792, 793, 794, 795, 796, 797, 798, 799, 800, 801, 802, 803, 804, 805, 806, 807, 808, 809, 810, 811, 812, 813, 814, 815, 816, 817, 818, 819, 820, 821, 822, 823, 824, 825, 826, 827, 828, 829, 830, 831, 832, 833, 834, 835, 836, 837, 838, 839, 840, 841, 842, 843, 844, 845, 846, 847, 848, 849, 850, 851, 852, 853, 854, 855, 856, 857, 858, 859, 860, 861, 862, 863, 864, 865, 866, 867, 868, 869, 870, 871, 872, 873, 874, 875, 876, 877, 878, 879, 880, 881, 882, 883, 884, 885, 886, 887, 888, 889, 890, 891, 892, 893, 894, 895, 896, 897, 898, 899, 900, 901, 902, 903, 904, 905, 906, 907, 908, 909, 910, 911, 912, 913, 914, 915, 916, 917, 918, 919, 920, 921, 922, 923, 924, 925, 926, 927, 928, 929, 930, 931, 932, 933, 934, 935, 936, 937, 938, 939, 940, 941, 942, 943, 944, 945, 946, 947, 948, 949, 950, 951, 952, 953, 954, 955, 956, 957, 958, 959, 960, 961, 962, 963, 964, 965, 966, 967, 968, 969, 970, 971, 972, 973, 974, 975, 976, 977, 978, 979, 980, 981, 982, 983, 984, 985, 986, 987, 988, 989, 990, 991, 992, 993, 994, 995, 996, 997, 998, 999, 1000, 1001, 1002, 1003, 1004, 1005, 1006, 1007, 1008, 1009, 1010, 1011, 1012, 1013, 1014, 1015, 1016, 1017, 1018, 1019, 1020, 1021, 1022, 1023, 1024, 1025, 1026, 1027, 1028, 1029, 1030, 1031, 1032, 1033, 1034, 1035, 1036, 1037, 1038, 1039, 1040, 1041, 1042, 1043, 1044, 1045, 1046, 1047, 1048, 1049, 1050, 1051, 1052, 1053, 1054, 1055, 1056, 1057, 1058, 1059, 1060, 1061, 1062, 1063, 1064, 1065, 1066, 1067, 1068, 1069, 1070, 1071, 1072, 1073, 1074, 1075, 1076, 1077, 1078, 1079, 1080, 1081, 1082, 1083, 1084, 1085, 1086, 1087, 1088, 1089, 1090, 1091, 1092, 1093, 1094, 1095, 1096, 1097, 1098, 1099, 1100, 1101, 1102, 1103, 1104, 1105, 1106, 1107, 1108, 1109, 1110, 1111, 1112, 1113, 1114, 1115, 1116, 1117, 1118, 1119, 1120, 1121, 1122, 1123, 1124, 1125, 1126, 1127, 1128, 1129, 1130, 1131, 1132, 1133, 1134, 1135, 1136, 1137, 1138, 1139, 1140, 1141, 1142, 1143, 1144, 1145, 1146, 1147, 1148, 1149, 1150, 1151, 1152, 1153, 1154, 1155, 1156, 1157, 1158, 1159, 1160, 1161, 1162, 1163, 1164, 1165, 1166, 1167, 1168, 1169, 1170, 1171, 1172, 1173, 1174, 1175, 1176, 1177, 1178, 1179, 1180, 1181, 1182, 1183, 1184, 1185, 1186, 1187, 1188, 1189, 1190, 1191, 1192, 1193, 1194, 1195, 1196, 1197, 1198, 1199, 1200, 1201, 1202, 1203, 1204, 1205, 1206, 1207, 1208, 1209, 1210, 1211, 1212, 1213, 1214, 1215, 1216, 1217, 1218, 1219, 1220, 1221, 1222, 1223, 1224, 1225, 1226, 1227, 1228, 1229, 1230, 1231, 1232, 1233, 1234, 1235, 1236, 1237, 1238, 1239, 1240, 1241, 1242, 1243, 1244, 1245, 1246, 1247, 1248, 1249, 1250, 1251, 1252, 1253, 1254, 1255, 1256, 1257, 1258, 1259, 1260, 1261, 1262, 1263, 1264, 1265, 1266, 1267, 1268, 1269, 1270, 1271, 1272, 1273, 1274, 1275, 1276, 1277, 1278, 1279, 1280, 1281, 1282, 1283, 1284, 1285, 1286, 1287, 1288, 1289, 1290, 1291, 1292, 1293, 1294, 1295, 1296, 1297, 1298, 1299, 1300, 1301, 1302, 1303, 1304, 1305, 1306, 1307, 1308, 1309, 1310, 1311, 1312, 1313, 1314, 1315, 1316, 1317, 1318, 1319, 1320, 1321, 1322, 1323, 1324, 1325, 1326, 1327, 1328, 1329, 1330, 1331, 1332, 1333, 1334, 1335, 1336, 1337, 1338, 1339, 1340, 1341, 1342, 1343, 1344, 1345, 1346, 1347, 1348, 1349, 1350, 1351, 1352, 1353, 1354, 1355, 1356, 1357, 1358, 1359, 1360, 1361, 1362, 1363, 1364, 1365, 1366, 1367, 1368, 1369, 1370, 1371, 1372, 1373, 1374, 1375, 1376, 1377, 1378, 1379, 1380, 1381, 1382, 1383, 1384, 1385, 1386, 1387, 1388, 1389, 1390, 1391, 1392, 1393, 1394, 1395, 1396, 1397, 1398, 1399, 1400, 1401, 1402, 1403, 1404, 1405, 1406, 1407, 1408, 1409, 1410, 1411, 1412, 1413, 1414, 1415, 1416, 1417, 1418, 1419, 1420, 1421, 1422, 1423, 1424, 1425, 1426, 1427, 1428, 1429, 1430, 1431, 1432, 1433, 1434, 1435, 1436, 1437, 1438, 1439, 1440, 1441, 1442, 1443, 1444, 1445, 1446, 1447, 1448, 1449, 1450, 1451, 1452, 1453, 1454, 1455, 1456, 1457, 1458, 1459, 1460, 1461, 1462, 1463, 1464, 1465, 1466, 1467, 1468, 1469, 1470, 1471, 1472, 1473, 1474, 1475, 1476, 1477, 1478, 1479, 1480, 1481, 1482, 1483, 1484, 1485, 1486, 1487, 1488, 1489, 1490, 1491, 1492, 1493, 1494, 1495, 1496, 1497, 1498, 1499, 1500, 1501, 1502, 1503, 1504, 1505, 1506, 1507, 1508, 1509, 1510, 1511, 1512, 1513, 1514, 1515, 1516, 1517, 1518, 1519, 1520, 1521, 1522, 1523, 1524, 1525, 1526, 1527, 1528, 1529, 1530, 1531, 1532, 1533, 1534, 1535, 1536, 1537, 1538, 1539, 
distro:
26494, 27007, 26647, 27232, 27377, 27926, 27521, 28133, 26045, 26432, 26108, 26594, 26588, 27182, 26687, 27281, 27194, 27725, 27374, 27878, 27349, 27997, 27475, 28069, 15458, 15674, 15512, 15755, 31397, 31838, 31604, 32072, 31901, 32243, 32072, 32423, 32558, 32990, 32711, 33170, 32228, 32732, 32435, 32939, 32532, 32982, 32694, 33090, 32591, 33068, 32735, 33266, 22036, 22333, 22090, 22486, 23404, 23584, 23530, 23719, 28078, 28276, 28267, 28465, 36858, 37146, 37047, 37344, 37298, 37595, 37442, 37955, 38069, 38600, 38294, 38825, 38436, 38751, 38652, 38967, 36031, 36265, 36274, 36499, 33077, 33401, 33266, 33599, 42237, 42282, 42543, 42453, 42257, 42239, 42464, 42437, 43232, 43286, 43448, 43511, 42450, 42531, 42693, 42792, 41531, 41540, 41756, 41720, 43114, 43114, 43357, 43294, 22444, 22381, 22588, 22552, 26336, 26291, 26462, 26426, 42959, 43085, 43292, 43292, 42948, 42948, 43209, 43200, 42277, 42403, 42529, 42628, 43197, 43242, 43476, 43539, 43036, 43081, 43216, 43342, 42725, 42743, 42977, 42914, 22594, 22648, 22756, 22783, 33089, 33161, 33269, 33314, 42368, 42404, 42593, 42611, 43181, 43289, 43451, 43523, 43391, 43454, 43670, 43724, 43539, 43611, 43791, 43854, 44056, 44191, 44362, 44335, 39139, 39193, 39418, 39418, 28472, 28454, 28607, 28580, 37999, 37999, 38179, 38197, 44379, 44370, 44631, 44640, 44800, 44719, 44989, 45016, 43206, 43296, 43449, 43539, 43931, 43949, 44129, 44183, 42856, 42892, 43099, 43153, 33302, 33365, 33518, 33608, 43900, 43747, 44053, 43990, 42787, 42760, 43039, 43111, 42667, 42586, 42928, 42928, 43494, 43494, 43737, 43764, 42834, 42861, 43032, 43113, 42037, 41992, 42226, 42298, 26241, 26313, 26394, 26421, 26790, 26835, 26889, 26925, 42309, 42372, 42543, 42633, 43489, 43453, 43768, 43669, 43121, 43112, 43382, 43382, 44505, 44325, 44685, 44667, 43424, 43406, 43712, 43649, 42652, 42751, 42967, 43012, 28198, 28189, 28387, 28306, 44392, 44302, 44581, 44608, 44797, 44806, 45040, 45004, 43132, 43141, 43384, 43402, 43406, 43415, 43685, 43685, 43946, 43901, 44162, 44081, 42412, 42358, 42637, 42664, 27296, 27278, 27386, 27341, 32055, 31992, 32190, 32163, 42968, 42959, 43184, 43211, 43290, 43209, 43479, 43434, 43758, 43695, 44064, 43965, 44108, 44027, 44324, 44225, 44005, 44041, 44284, 44230, 38180, 38207, 38414, 38405, 22827, 22845, 22944, 22980, 43334, 43325, 43694, 43613, 43901, 43874, 44162, 44099, 43473, 43374, 43779, 43653, 44210, 44156, 44426, 44336, 42310, 42247, 42589, 42490, 43452, 43587, 43686, 43785, 31903, 31858, 32101, 32029, 32605, 32605, 32767, 32794, 43336, 43255, 43579, 43516, 43295, 43088, 43502, 43376, 41283, 41175, 41562, 41454, 42035, 41918, 42269, 42161, 38331, 38295, 38601, 38592, 38817, 38817, 39042, 39105, 28779, 28806, 28914, 28959, 43111, 43309, 43309, 43507, 44182, 44281, 44461, 44479, 42175, 42112, 42445, 42337, 44178, 44196, 44430, 44439, 43614, 43542, 43875, 43767, 44317, 44245, 44533, 44542, 33433, 33532, 33586, 33649, 37847, 37883, 38054, 38171, 43733, 43679, 44012, 43922, 41284, 41293, 41536, 41536, 42346, 42319, 42499, 42517, 43818, 43872, 44034, 44106, 39037, 38938, 39262, 39145, 33237, 33138, 33381, 33372, 27691, 27772, 27862, 27943, 44606, 44453, 44849, 44705, 42730, 42766, 42955, 42973, 43195, 43141, 43402, 43438, 43302, 43302, 43590, 43608, 43815, 43770, 44103, 44013, 43457, 43313, 43691, 43610, 33706, 33706, 33913, 33913, 37789, 37735, 38023, 37978, 42842, 42725, 43049, 42977, 41658, 41649, 41955, 41919, 42171, 42072, 42369, 42243, 43430, 43367, 43700, 43628, 39534, 39561, 39741, 39750, 32872, 32881, 33133, 33016, 28137, 27957, 28272, 28137, 43262, 43289, 43514, 43568, 42945, 42954, 43152, 43179, 42174, 42336, 42426, 42561, 44295, 44331, 44520, 44619, 42915, 42906, 43212, 43185, 43194, 43176, 43401, 43419, 41921, 41777, 42227, 42065, 42162, 42189, 42459, 42459, 42745, 42691, 42997, 43006, 43251, 43368, 43458, 43557, 43294, 43258, 43510, 43546, 44012, 44102, 44237, 44327, 28610, 28601, 28736, 28727, 22565, 22529, 22718, 22610, 32887, 32941, 33112, 33094, 42524, 42488, 42848, 42821, 42468, 42495, 42756, 42747, 43014, 43023, 43338, 43311, 43549, 43495, 43864, 43783, 42493, 42412, 42817, 42727, 39160, 39259, 39412, 39475, 33015, 32988, 33249, 33150, 43065, 43110, 43254, 43389, 43862, 43844, 44078, 44114, 43312, 43321, 43546, 43609, 44140, 43951, 44383, 44248, 43880, 43889, 44150, 44213, 39457, 39358, 39646, 39628, 26220, 26292, 26337, 26472, 41892, 41937, 42189, 42126, 43832, 43850, 44102, 44093, 42688, 42571, 42904, 42778, 43638, 43575, 43863, 43845, 43289, 43388, 43559, 43658, 42156, 42147, 42426, 42381, 22883, 22973, 23072, 23081, 37880, 37682, 38078, 37925, 38285, 38159, 38564, 38384, 40041, 39699, 40374, 39969, 39738, 39657, 40017, 39873, 40836, 40530, 41079, 40782, 39694, 39541, 39973, 39766, 26224, 26035, 26368, 26188, 21088, 21025, 21232, 21097, 32459, 32144, 32630, 32333, 33710, 33332, 33854, 33548, 34764, 34260, 34953, 34494, 35144, 34802, 35360, 35000, 33846, 33513, 34008, 33702, 34464, 33987, 34635, 34194, 22571, 22472, 22724, 22589, 25471, 25075, 25624, 25210, 28993, 28570, 29164, 28687, 29517, 28914, 29652, 29121, 30245, 29660, 30371, 29804, 29019, 28488, 29145, 28641, 28447, 27979, 28600, 28159, 23323, 22909, 23449, 23035, 18950, 18617, 19058, 18716, 23665, 23098, 23818, 23134, 23593, 23098, 23719, 23197, 24405, 23739, 24558, 23847, 24327, 23769, 24426, 23913, 23963, 23360, 23999, 23387, 21739, 21316, 21865, 21406, 14367, 14133, 14430, 14160, 21120, 21471, 21192, 21570, 31978, 32788, 32005, 32869, 31928, 32621, 32045, 32720, 31413, 32313, 31494, 32394, 31628, 32267, 31772, 32393, 31853, 32528, 31934, 32735, 31456, 32014, 31546, 32176, 28967, 29300, 29057, 29453, 34040, 34544, 34175, 34742, 39506, 40127, 39587, 40280, 38922, 39669, 39057, 39867, 38218, 38758, 38353, 38965, 39041, 39743, 39221, 39905, 34230, 34743, 34356, 34851, 30162, 30549, 30315, 30702, 45081, 45603, 45243, 45729, 45692, 46160, 45944, 46376, 45622, 46045, 45802, 46225, 45721, 46072, 45919, 46306, 45359, 45701, 45512, 45953, 45728, 46142, 45872, 46358, 23817, 23979, 23826, 24051, 44202, 44229, 44517, 44508, 51107, 51125, 51332, 51422, 51641, 51731, 51911, 51965, 52893, 53037, 53010, 53271, 51554, 51752, 51734, 52022, 51417, 51462, 51588, 51642, 39715, 39805, 39913, 39967, 33350, 33377, 33512, 33548, 38844, 38952, 39006, 39078, 54608, 54527, 54770, 54698, 53280, 53253, 53460, 53460, 54227, 54191, 54335, 54416, 52010, 52100, 52289, 52298, 52302, 52401, 52491, 52545, 47560, 47587, 47776, 47803, 51705, 51768, 51966, 52020, 53397, 53442, 53514, 53550, 53343, 53352, 53568, 53640, 54049, 53950, 54229, 54094, 54538, 54484, 54763, 54727, 52939, 52957, 53137, 53164, 33822, 33786, 34002, 33903, 27077, 27068, 27131, 27176, 45644, 45671, 45842, 45941, 53671, 53680, 53896, 53860, 53530, 53467, 53791, 53674, 54368, 54404, 54620, 54566, 52616, 52778, 52868, 53057, 53105, 53150, 53285, 53321, 40790, 40772, 41033, 40916, 39002, 39065, 39101, 39263, 52543, 52723, 52696, 52939, 53842, 53788, 54031, 54040, 54450, 54603, 54612, 54837, 53585, 53648, 53819, 53828, 53384, 53483, 53492, 53681, 47767, 47893, 48019, 48028, 34814, 34886, 35003, 34958, 52623, 52812, 52884, 52974, 53505, 53379, 53784, 53694, 53721, 53550, 53874, 53811, 53007, 53025, 53286, 53250, 52944, 52980, 53178, 53250, 52589, 52895, 52904, 53156, 34433, 34388, 34613, 34568, 52479, 52488, 52722, 52695, 54521, 54413, 54710, 54602, 52530, 52512, 52746, 52800, 53578, 53632, 53821, 53821, 54218, 54164, 54389, 54407, 53285, 53438, 53555, 53627, 34595, 34595, 34730, 34694, 32818, 32809, 32890, 32899, 54136, 54037, 54343, 54289, 52711, 52738, 52990, 52936, 52916, 52826, 53132, 53024, 52493, 52628, 52826, 52862, 53962, 53782, 54142, 54034, 53516, 53525, 53804, 53777, 27155, 27362, 27236, 27434, 53384, 53357, 53555, 53528, 54924, 54969, 55131, 55176, 53627, 53564, 53870, 53735, 52653, 52482, 52914, 52734, 53831, 53849, 54074, 54020, 53346, 53535, 53697, 53715, 34916, 34871, 35042, 34997, 39149, 39140, 39293, 39311, 52530, 52638, 52719, 52827, 52756, 52738, 52972, 52981, 53197, 53098, 53377, 53413, 51633, 51426, 51849, 51660, 54036, 54045, 54225, 54243, 47669, 47669, 47867, 47903, 34183, 34327, 34345, 34435, 53655, 53520, 53835, 53709, 54283, 54319, 54517, 54553, 53262, 53217, 53388, 53370, 53265, 53256, 53445, 53454, 53305, 53395, 53575, 53575, 53520, 53403, 53772, 53637, 33429, 33276, 33555, 33411, 46653, 46707, 46851, 46878, 53673, 53556, 53844, 53763, 52991, 53054, 53270, 53180, 52186, 52096, 52384, 52339, 53505, 53316, 53667, 53523, 53334, 53271, 53559, 53451, 40849, 40804, 41074, 41020, 33139, 33139, 33301, 33310, 54152, 54251, 54368, 54395, 52981, 52999, 53206, 53260, 52650, 52614, 52830, 52731, 53475, 53511, 53700, 53682, 53078, 53159, 53240, 53402, 52281, 52182, 52524, 52434, 39635, 39518, 39806, 39797, 40472, 40589, 40643, 40742, 53609, 53591, 53861, 53780, 53023, 52897, 53212, 53104, 51887, 51941, 52085, 52058, 52803, 52749, 53046, 52956, 46845, 46773, 47070, 47007, 48042, 47925, 48177, 48105, 33030, 32922, 33156, 33084, 53450, 53369, 53630, 53585, 53436, 53490, 53679, 53742, 51905, 51896, 52031, 52094, 52693, 52558, 52954, 52828, 52436, 52364, 52661, 52670, 52575, 52539, 52773, 52737, 39326, 39227, 39380, 39326, 52136, 52100, 52262, 52262, 52497, 52380, 52722, 52668, 52415, 52532, 52577, 52721, 53834, 53816, 54068, 53987, 53454, 53490, 53706, 53607, 46840, 46813, 47074, 47029, 26955, 27009, 27045, 27072, 38620, 38656, 38809, 38782, 53877, 53841, 54120, 54075, 53663, 53762, 53960, 53996, 53591, 53582, 53825, 53870, 54088, 53962, 54295, 54196, 53712, 53604, 53838, 53874, 46745, 46817, 47033, 47078, 45949, 45940, 46174, 46120, 46417, 46327, 46615, 46498, 53878, 53833, 54085, 53977, 54412, 54538, 54538, 54664, 52854, 52818, 53106, 52962, 53570, 53426, 53651, 53606, 40962, 41016, 41124, 41214, 41340, 41448, 41502, 41610, 39086, 39185, 39248, 39338, 54432, 54297, 54612, 54612, 53697, 53661, 53931, 53859, 53408, 53372, 53660, 53633, 53472, 53616, 53661, 53868, 53895, 54012, 54192, 54120, 47917, 47854, 48106, 48079, 47677, 47470, 47857, 47677, 48091, 47893, 48397, 48055, 48585, 48144, 48810, 48396, 49562, 49166, 49733, 49454, 48335, 47921, 48515, 48218, 49502, 49277, 49619, 49403, 24908, 24809, 25016, 24908, 25133, 24971, 25205, 25052, 36358, 35899, 36529, 35962, 42604, 42064, 42856, 42199, 41548, 41161, 41683, 41323, 42440, 41855, 42620, 42053, 41267, 40925, 41447, 41114, 41627, 41267, 41780, 41393, 33075, 32535, 33183, 32697, 30647, 30062, 30818, 30206, 30899, 30287, 31025, 30413, 35466, 34800, 35655, 34899, 36200, 35444, 36371, 35597, 35020, 34345, 35164, 34489, 34540, 33910, 34747, 34009, 27679, 27148, 27787, 27274, 27895, 27364, 27994, 27481, 27964, 27397, 28063, 27469, 28164, 27399, 28245, 27462, 28050, 27384, 28149, 27465, 28209, 27453, 28317, 27606, 27775, 27100, 27874, 27199, 28468, 27721, 28540, 27802, 
gpgpu_n_tot_thrd_icount = 28723572160
gpgpu_n_tot_w_icount = 897611630
gpgpu_n_icache_hits = 487237860
gpgpu_n_icache_misses = 2043
gpgpu_n_l1dcache_read_hits = 1945781
gpgpu_n_l1dcache_read_misses = 1677579
gpgpu_n_l1dcache_write_accesses = 21632
gpgpu_n_l1dcache_wirte_misses = 21632
gpgpu_n_tcache_hits = 0
gpgpu_n_tcache_misses = 0
gpgpu_n_ccache_hits = 40998717
gpgpu_n_ccache_misses = 3633
gpgpu_n_stall_shd_mem = 4180478
gpgpu_n_mem_read_local = 0
gpgpu_n_mem_write_local = 0
gpgpu_n_mem_read_global = 1667379
gpgpu_n_mem_write_global = 21632
gpgpu_n_mem_texture = 0
gpgpu_n_mem_const = 924
gpgpu_n_load_insn  = 115947520
gpgpu_n_store_insn = 1384448
gpgpu_n_shmem_insn = -159355968
gpgpu_n_tex_insn = 0
gpgpu_n_const_mem_insn = 175305728
gpgpu_n_param_mem_insn = -2053555264
gpgpu_n_shmem_bkconflict = 0
gpgpu_n_cache_bkconflict = 0
gpgpu_n_intrawarp_mshr_merge = 0
gpgpu_n_cmem_portconflict = 567840
gpgpu_stall_shd_mem[c_mem][bk_conf] = 567840
gpgpu_stall_shd_mem[c_mem][mshr_rc] = 0
gpgpu_stall_shd_mem[c_mem][icnt_rc] = 0
gpgpu_stall_shd_mem[t_mem][mshr_rc] = 0
gpgpu_stall_shd_mem[t_mem][icnt_rc] = 0
gpgpu_stall_shd_mem[s_mem][bk_conf] = 1806272
gpgpu_stall_shd_mem[gl_mem][bk_conf] = 0
gpgpu_stall_shd_mem[gl_mem][coal_stall] = 1806366
gpgpu_stall_shd_mem[g_mem_ld][mshr_rc] = 0
gpgpu_stall_shd_mem[g_mem_ld][icnt_rc] = 0
gpgpu_stall_shd_mem[g_mem_ld][wb_icnt_rc] = 0
gpgpu_stall_shd_mem[g_mem_ld][wb_rsrv_fail] = 0
gpgpu_stall_shd_mem[g_mem_st][mshr_rc] = 0
gpgpu_stall_shd_mem[g_mem_st][icnt_rc] = 0
gpgpu_stall_shd_mem[g_mem_st][wb_icnt_rc] = 0
gpgpu_stall_shd_mem[g_mem_st][wb_rsrv_fail] = 0
gpgpu_stall_shd_mem[l_mem_ld][mshr_rc] = 0
gpgpu_stall_shd_mem[l_mem_ld][icnt_rc] = 0
gpgpu_stall_shd_mem[l_mem_ld][wb_icnt_rc] = 0
gpgpu_stall_shd_mem[l_mem_ld][wb_rsrv_fail] = 0
gpgpu_stall_shd_mem[l_mem_st][mshr_rc] = 0
gpgpu_stall_shd_mem[l_mem_st][icnt_rc] = 0
gpgpu_stall_shd_mem[l_mem_ld][wb_icnt_rc] = 0
gpgpu_stall_shd_mem[l_mem_ld][wb_rsrv_fail] = 0
gpu_reg_bank_conflict_stalls = 0
Warp Occupancy Distribution:
Stall:27091096	W0_Idle:173553	W0_Scoreboard:206913291	W1:2739969	W2:1854549	W3:2044566	W4:1984113	W5:1268649	W6:1913121	W7:1053396	W8:1998522	W9:1108584	W10:1375506	W11:1064574	W12:1645200	W13:1041615	W14:1547163	W15:1045179	W16:1922152	W17:946719	W18:1370475	W19:944073	W20:1519083	W21:1011402	W22:1481094	W23:965808	W24:1666557	W25:974601	W26:1374714	W27:874305	W28:1767222	W29:1405089	W30:1393398	W31:2522763	W32:851787469
maxmrqlatency = 30 
maxdqlatency = 0 
maxmflatency = 369 
averagemflatency = 89 
max_icnt2mem_latency = 210 
max_icnt2sh_latency = 40483458 
mrq_lat_table:39826 	3134 	5834 	8146 	692 	0 	0 	0 	0 	0 	0 	0 	0 	0 	0 	0 	0 	0 	0 	0 	0 	0 	0 	0 	0 	0 	0 	0 	0 	0 	0 	0 	
dq_lat_table:0 	0 	0 	0 	0 	0 	0 	0 	0 	0 	0 	0 	0 	0 	0 	0 	0 	0 	0 	0 	0 	0 	0 	0 	0 	0 	0 	0 	0 	0 	0 	0 	
mf_lat_table:0 	0 	0 	0 	0 	0 	1647428 	42317 	190 	0 	0 	0 	0 	0 	0 	0 	0 	0 	0 	0 	0 	0 	0 	0 	0 	0 	0 	0 	0 	0 	0 	0 	
icnt2mem_lat_table:144 	1665726 	23220 	235 	346 	228 	166 	52 	0 	0 	0 	0 	0 	0 	0 	0 	0 	0 	0 	0 	0 	0 	0 	0 	
icnt2sh_lat_table:0 	805753 	848735 	13762 	53 	0 	0 	0 	0 	0 	0 	0 	0 	0 	0 	0 	0 	168 	168 	360 	656 	1176 	2328 	4740 	
mf_lat_pw_table:8376 	3660 	0 	0 	0 	0 	71312 	601 	0 	0 	0 	0 	0 	0 	0 	0 	0 	0 	0 	0 	0 	0 	0 	0 	0 	0 	0 	0 	0 	0 	0 	0 	
maximum concurrent accesses to same row:
dram[0]:        64        64        64        64        64        64        64        64        64        64        64        64        64        64        64        64 
dram[1]:        64        64        64        64        64        64        64        64        64        64        64        64        64        64        64        64 
dram[2]:        64        64        64        64        64        64        64        64        64        64        64        64        64        64        64        64 
dram[3]:        64        64        64        64        64        64        64        64        64        64        64        64        64        64        64        64 
dram[4]:        64        64        64        64        64        64        64        64        64        64        64        64        64        64        64        64 
maximum service time to same row:
dram[0]:   5761126   5476353   5837866   5533066   5737847   5185586   5651107   5581020   5617913   5614520   5423811   5669926   5472875   5557095   5177634   5706174 
dram[1]:   5761129   5476350   5837857   5533039   5737847   5150553   5651114   5581026   5617912   5614520   5423812   5669934   5465219   5557095   5062349   5706166 
dram[2]:   5752552   5475304   5839022   5524178   5736954   5303537   5647677   5594200   5619126   5624427   5402626   5669913   5465254   5558822   5033835   5693520 
dram[3]:   5752564   5475304   5839032   5545518   5748696   5193785   5647675   5594193   5616646   5624417   5402643   5669913   5463456   5558822   5325800   5693521 
dram[4]:   5737108   5452302   5840463   5620446   5755486   5316921   5449467   5593899   5609826   5615467   5396530   5717042   5587177   5562652   5304095   5617796 
average row accesses per activate:
dram[0]:  8.617977  8.481928  7.489362  9.915493 25.769230 12.218182 11.586206 10.707692 10.352942  8.771085 10.563380 14.720000 13.629630 13.851851 13.963636  9.035295 
dram[1]:  9.696202  8.000000  7.910112  8.691358 24.000000 13.714286 12.444445 10.875000 10.666667  7.663158 10.685715 15.659575 13.381818 13.357142 12.000000  8.439561 
dram[2]:  8.148936  8.282353  8.481928  7.822222 24.000000 12.218182 12.218182 11.633333  9.777778  9.100000 10.535212 15.020409 14.431373 12.229508 12.590164  8.629213 
dram[3]:  8.693182  8.585366  8.000000  8.186047 25.846153 12.000000 10.838710 12.245614 10.507463  8.224719 10.840580 14.153846 14.153846 12.862069 15.058824  8.258064 
dram[4]:  7.755102  8.091954  7.410526  8.235294 22.400000 12.000000 12.000000 11.258064  9.643836  8.224719 10.108109 14.153846 12.266666 12.096774 14.769231  9.035295 
average row locality = 57632/5413 = 10.646961
number of total memory accesses made:
dram[0]:         0         0         0         0         0         0         0         0         0         0         0         0         0         0         0         0 
dram[1]:         0         0         0         0         0         0         0         0         0         0         0         0         0         0         0         0 
dram[2]:         0         0         0         0         0         0         0         0         0         0         0         0         0         0         0         0 
dram[3]:         0         0         0         0         0         0         0         0         0         0         0         0         0         0         0         0 
dram[4]:         0         0         0         0         0         0         0         0         0         0         0         0         0         0         0         0 
total accesses: 0
min_bank_accesses = 0!
min_chip_accesses = 0!
number of total read accesses:
dram[0]:       485       448       448       448       414       416       416       440       448       460       462       448       448       460       480       480 
dram[1]:       484       448       448       448       416       416       416       440       448       460       460       448       448       460       480       480 
dram[2]:       484       448       448       448       416       416       416       442       448       460       460       448       448       458       480       480 
dram[3]:       483       448       448       448       416       416       416       442       448       462       460       448       448       458       480       480 
dram[4]:       480       448       448       444       416       416       416       442       448       462       460       448       448       462       480       480 
total reads: 36000
bank skew: 485/414 = 1.17
chip skew: 7201/7198 = 1.00
number of total write accesses:
dram[0]:       282       256       256       256       256       256       256       256       256       268       288       288       288       288       288       288 
dram[1]:       282       256       256       256       256       256       256       256       256       268       288       288       288       288       288       288 
dram[2]:       282       256       256       256       256       256       256       256       256       268       288       288       288       288       288       288 
dram[3]:       282       256       256       256       256       256       256       256       256       270       288       288       288       288       288       288 
dram[4]:       280       256       256       256       256       256       256       256       256       270       288       288       288       288       288       288 
total reads: 21632
bank skew: 288/256 = 1.12
chip skew: 4328/4326 = 1.00
average mf latency per bank:
dram[0]:       2508      2988      3401      2143      2077      3056      2595      2387      3362      2893      2005      2680      2573      1656      2671      3133
dram[1]:       2511      2996      3393      2128      2082      3064      2585      2392      3367      2883      2013      2690      2561      1652      2684      3122
dram[2]:       2520      2983      3397      2158      2066      3057      2603      2367      3372      2907      2014      2680      2582      1653      2663      3121
dram[3]:       2532      2959      3404      2193      2041      3050      2617      2343      3359      2915      2020      2669      2604      1652      2630      3135
dram[4]:       2540      2973      3399      2192      2047      3046      2612      2360      3353      2906      2032      2677      2594      1648      2644      3139
maximum mf latency per bank:
dram[0]:        205       207       180       180       238       200       179       268       251       180       240       254       179       270       235       183
dram[1]:        184       188       180       182       235       208       179       282       195       182       234       284       182       261       238       183
dram[2]:        181       194       181       179       226       187       181       312       199       182       227       193       179       228       369       179
dram[3]:        212       180       181       180       293       226       180       307       216       179       237       221       189       251       235       180
dram[4]:        228       183       185       181       255       218       188       271       205       179       352       261       183       313       226       189

Number of Memory Banks Accessed per Memory Operation per Warp (from 0):
0	0	0	0	0	0	0	0	0	0	0	0	0	0	0	0	0	0	0	0	0	0	0	0	0	0	0	0	0	0	0	0	0	0	0	0	0	0	0	0	0	0	0	0	0	0	0	0	0	0	0	0	0	0	0	0	0	0	0	0	0	0	0	0	0	0	0	0	0	0	0	0	0	0	0	0	0	0	0	0	
Average # of Memory Banks Accessed per Memory Operation per Warp=-nan

position of mrq chosen
0	0	0	0	0	0	0	0	0	0	0	0	0	0	0	0	

average position of mrq chosen = -nan
gpgpu_l2_write_miss = 0
gpgpu_l2_write_access = 0
gpgpu_l2_read_miss = 0
gpgpu_l2_read_access = 0
Cache L2_bank_000:
MSHR contents
MSHR: tag=0x802a3780, atomic=0 1 entries : 0x2aeb4999c840 :  mf: uid=531908970, sid07:w07, part=0, addr=0x802a3780, load , size=128, unknown  status = IN_PARTITION_DRAM (40483458), 

DRAM[0]: 16 bks, busW=4 BL=8 CL=12, tRRD=2 tCCD=6, tRCD=12 tRAS=28 tRP=12 tRC=40
n_cmd=91087779 n_nop=91062618 n_act=1062 n_pre=1046 n_req=11527 n_rd=14401 n_write=8652 bw_util=0.0005062
n_activity=200918 dram_eff=0.2295
bk0: 969a 91082030i bk1: 896a 91082091i bk2: 896a 91082183i bk3: 896a 91082302i bk4: 828a 91081582i bk5: 832a 91081880i bk6: 832a 91081543i bk7: 880a 91081694i bk8: 896a 91080400i bk9: 920a 91080990i bk10: 924a 91080997i bk11: 896a 91082324i bk12: 896a 91078912i bk13: 920a 91078644i bk14: 960a 91078048i bk15: 960a 91054208i 
dram_util_bins: 0 0 0 0 0 0 0 0 0 0
dram_eff_bins: 0 0 0 0 0 0 0 0 0 0
mrqq: max=4 avg=0.000707944
Cache L2_bank_001:
MSHR contents

DRAM[1]: 16 bks, busW=4 BL=8 CL=12, tRRD=2 tCCD=6, tRCD=12 tRAS=28 tRP=12 tRC=40
n_cmd=91087779 n_nop=91062589 n_act=1077 n_pre=1061 n_req=11526 n_rd=14400 n_write=8652 bw_util=0.0005061
n_activity=201360 dram_eff=0.229
bk0: 968a 91082179i bk1: 896a 91082336i bk2: 896a 91082488i bk3: 896a 91082038i bk4: 832a 91081558i bk5: 832a 91081911i bk6: 832a 91081904i bk7: 880a 91081616i bk8: 896a 91080677i bk9: 920a 91080722i bk10: 920a 91080993i bk11: 896a 91082217i bk12: 896a 91078886i bk13: 920a 91078528i bk14: 960a 91077772i bk15: 960a 91053838i 
dram_util_bins: 0 0 0 0 0 0 0 0 0 0
dram_eff_bins: 0 0 0 0 0 0 0 0 0 0
mrqq: max=5 avg=0.00071363
Cache L2_bank_002:
MSHR contents

DRAM[2]: 16 bks, busW=4 BL=8 CL=12, tRRD=2 tCCD=6, tRCD=12 tRAS=28 tRP=12 tRC=40
n_cmd=91087779 n_nop=91062573 n_act=1085 n_pre=1069 n_req=11526 n_rd=14400 n_write=8652 bw_util=0.0005061
n_activity=201816 dram_eff=0.2284
bk0: 968a 91082160i bk1: 896a 91081934i bk2: 896a 91082201i bk3: 896a 91082130i bk4: 832a 91081392i bk5: 832a 91081429i bk6: 832a 91081574i bk7: 884a 91082047i bk8: 896a 91080513i bk9: 920a 91080863i bk10: 920a 91080825i bk11: 896a 91082486i bk12: 896a 91079239i bk13: 916a 91078725i bk14: 960a 91078053i bk15: 960a 91053692i 
dram_util_bins: 0 0 0 0 0 0 0 0 0 0
dram_eff_bins: 0 0 0 0 0 0 0 0 0 0
mrqq: max=3 avg=0.000712972
Cache L2_bank_003:
MSHR contents

DRAM[3]: 16 bks, busW=4 BL=8 CL=12, tRRD=2 tCCD=6, tRCD=12 tRAS=28 tRP=12 tRC=40
n_cmd=91087779 n_nop=91062583 n_act=1077 n_pre=1061 n_req=11529 n_rd=14402 n_write=8656 bw_util=0.0005063
n_activity=201842 dram_eff=0.2285
bk0: 966a 91082007i bk1: 896a 91082055i bk2: 896a 91082088i bk3: 896a 91082193i bk4: 832a 91081481i bk5: 832a 91081978i bk6: 832a 91081867i bk7: 884a 91081964i bk8: 896a 91080413i bk9: 924a 91080800i bk10: 920a 91080854i bk11: 896a 91082227i bk12: 896a 91078932i bk13: 916a 91078800i bk14: 960a 91078240i bk15: 960a 91053781i 
dram_util_bins: 0 0 0 0 0 0 0 0 0 0
dram_eff_bins: 0 0 0 0 0 0 0 0 0 0
mrqq: max=5 avg=0.000698853
Cache L2_bank_004:
MSHR contents
MSHR: tag=0x802a3680, atomic=0 1 entries : 0x2aeb4999ca20 :  mf: uid=531908971, sid07:w05, part=4, addr=0x802a3680, load , size=128, unknown  status = IN_PARTITION_DRAM (40483457), 

DRAM[4]: 16 bks, busW=4 BL=8 CL=12, tRRD=2 tCCD=6, tRCD=12 tRAS=28 tRP=12 tRC=40
n_cmd=91087779 n_nop=91062513 n_act=1117 n_pre=1101 n_req=11524 n_rd=14396 n_write=8652 bw_util=0.0005061
n_activity=203080 dram_eff=0.227
bk0: 960a 91082107i bk1: 896a 91081921i bk2: 896a 91082265i bk3: 888a 91082337i bk4: 832a 91081555i bk5: 832a 91081547i bk6: 832a 91081734i bk7: 884a 91082012i bk8: 896a 91080745i bk9: 924a 91080852i bk10: 920a 91080874i bk11: 896a 91082338i bk12: 896a 91079042i bk13: 924a 91078526i bk14: 960a 91078202i bk15: 960a 91052591i 
dram_util_bins: 0 0 0 0 0 0 0 0 0 0
dram_eff_bins: 0 0 0 0 0 0 0 0 0 0
mrqq: max=5 avg=0.000701466
Cache L2_bank_000:	Size = 131072 B (64 Set x 16-way x 128 byte line)
		Access = 337974, Miss = 7201 (0.0213), PendingHit = 660 (0.00195)
Cache L2_bank_001:	Size = 131072 B (64 Set x 16-way x 128 byte line)
		Access = 337940, Miss = 7200 (0.0213), PendingHit = 652 (0.00193)
Cache L2_bank_002:	Size = 131072 B (64 Set x 16-way x 128 byte line)
		Access = 338087, Miss = 7200 (0.0213), PendingHit = 648 (0.00192)
Cache L2_bank_003:	Size = 131072 B (64 Set x 16-way x 128 byte line)
		Access = 338071, Miss = 7201 (0.0213), PendingHit = 668 (0.00198)
Cache L2_bank_004:	Size = 131072 B (64 Set x 16-way x 128 byte line)
		Access = 338045, Miss = 7198 (0.0213), PendingHit = 653 (0.00193)
L2 Cache Total Miss Rate = 0.021

icnt_total_pkts_mem_to_simt=8362209
icnt_total_pkts_simt_to_mem=1776645

LD_mem_lat_dist  0 0 0 0 0 0 0 0 0 0 0 0 0 0 0 0 0 0 0 0 0 0 0 0 0 0 0
ST_mem_lat_dist  0 0 0 0 0 0 0 0 0 0 0 0 0 0 0 0 0 0 0 0 0 0 0 0 0 0 0
Traffic 0 Stat
%=================================
% Average latency = 1.06959
% Accepted packets = 0 at node 0 (avg = 0.000864198)
lat(3) = 1.06959;
thru(3,:) = [ 0 0 0 0 0 0 0 0 0 0 0 0 0 0 0.00397404 0.00397539 0.00397701 0.00397525 0.00397487 0 0 0 0 ];
% latency change    = 5.40084
% throughput change = 4.79346
Traffic 1 Stat
%=================================
% Average latency = 6.81112
% Accepted packets = 0 at node 14 (avg = 0.00406739)
lat(4) = 6.81112;
thru(4,:) = [ 0.00659864 0.0069061 0.00683048 0.00640131 0.00637416 0.00647514 0.00672669 0.00634479 0.00671723 0.00697566 0.00687612 0.00682345 0.00662852 0.0068716 0 0 0 0 0 0 0 0 0 ];
% latency change    = 0.842963
% throughput change = 0.78753
----------------------------Interconnect-DETAILS---------------------------------=======Traffic[0]class0 ======
Traffic[0]class0Overall average latency = 1.07266 (2 samples)
Traffic[0]class0Overall average accepted rate = 0.000963942 (2 samples)
Traffic[0]class0Overall min accepted rate = 0 (2 samples)
traffic_manager/latency_stat_0_freq = [ 0 826390 3772 125 88 7386 1114 359 1551 388 125 4 1 1 0 0 0 0 0 0 0 0 0 0 0 0 0 0 0 0 0 0 0 0 0 0 0 0 0 0 0 0 0 0 0 0 0 0 0 0 0 0 0 0 0 0 0 0 0 1 0 0 0 1 0 0 0 0 0 0 0 1 0 0 0 2 0 0 0 0 0 0 0 1 0 0 0 0 0 0 0 0 0 0 0 0 0 0 0 0 0 0 0 0 0 0 0 0 0 0 0 0 0 0 0 0 0 0 0 0 0 0 0 0 0 0 0 0 0 0 0 0 0 0 0 0 0 0 0 0 0 0 0 0 0 0 0 0 0 0 0 0 0 0 0 0 0 0 0 0 0 0 0 0 0 0 0 0 0 0 0 0 0 0 0 0 0 0 0 0 0 0 0 0 0 0 0 0 0 0 0 0 0 0 0 0 0 0 0 0 0 0 0 0 0 0 0 0 0 0 0 0 0 0 0 0 0 0 0 0 0 0 0 0 0 0 0 0 0 0 0 0 0 0 0 0 0 0 0 0 0 0 0 0 0 0 0 0 0 0 0 0 0 0 0 0 0 0 0 0 0 0 0 0 0 0 0 0 0 0 0 0 0 0 0 0 0 0 0 0 0 0 0 0 0 0 0 0 0 0 0 0 0 0 0 0 0 0 0 0 0 0 0 0 0 0 0 0 0 0 0 0 0 0 0 0 0 0 0 0 0 0 0 0 0 0 0 0 0 0 0 0 0 0 0 0 0 0 0 0 0 0 0 0 0 0 0 0 0 0 0 0 0 0 0 0 0 3 0 0 0 1 0 0 0 0 0 0 0 0 0 0 0 0 0 0 0 0 0 0 0 0 0 0 0 0 0 0 0 0 0 0 0 0 0 0 0 0 0 0 0 0 0 0 0 0 0 0 0 0 0 0 0 0 0 0 0 0 0 0 0 0 0 0 0 0 0 0 0 0 0 0 0 0 0 0 0 0 0 0 0 0 0 0 0 0 0 0 0 0 0 0 0 0 0 0 0 0 0 0 0 0 0 0 0 0 0 0 0 0 0 0 0 0 0 0 0 0 0 0 0 0 0 0 0 0 0 0 0 0 0 0 0 0 0 0 0 0 0 0 0 0 0 0 0 0 0 0 0 0 0 0 0 0 0 0 0 0 0 0 0 0 0 0 0 0 0 0 0 0 0 0 0 0 0 0 0 0 0 0 0 0 0 0 0 0 0 0 0 0 0 0 0 0 0 0 0 0 0 0 0 0 0 0 0 0 0 0 0 0 0 0 0 0 0 0 0 0 0 0 0 0 0 0 0 0 0 0 0 0 0 0 0 0 0 0 0 0 0 0 0 0 0 0 0 0 0 0 0 0 0 0 0 0 0 0 0 0 0 0 0 0 0 0 0 0 0 0 0 0 0 0 0 0 0 0 0 0 0 0 0 0 0 0 0 0 0 0 0 0 0 0 0 0 0 0 0 0 0 0 0 0 0 0 0 0 0 0 0 0 0 0 0 0 0 0 0 0 0 0 0 0 0 0 0 0 0 0 0 0 0 0 0 0 0 0 0 0 0 0 0 0 0 0 0 0 0 0 0 0 0 0 0 0 0 0 0 0 0 0 0 0 0 0 0 0 0 0 0 0 0 0 0 0 0 0 0 0 0 0 0 0 0 0 0 0 0 0 0 0 0 0 0 0 0 0 0 0 0 0 0 0 0 0 0 0 0 0 0 0 0 0 0 0 0 0 0 0 0 0 0 0 0 0 0 0 0 0 0 0 0 0 0 0 0 0 0 0 0 0 0 0 0 0 0 0 0 0 0 0 0 0 0 0 0 0 0 0 0 0 0 0 0 0 0 0 0 0 0 0 0 0 0 0 0 0 0 0 0 0 0 0 0 0 0 0 0 0 0 0 0 0 0 0 0 0 0 0 0 0 0 0 0 0 0 0 0 0 0 0 0 0 0 0 0 0 0 0 0 0 0 0 0 0 0 0 0 0 0 0 0 0 0 0 0 0 0 0 0 0 0 0 0 0 0 0 0 0 0 0 0 0 0 0 0 0 0 0 0 0 0 0 0 0 0 0 0 0 0 0 0 0 0 0 0 0 0 0 0 0 0 0 0 0 0 0 0 0 0 0 0 0 0 0 0 0 0 0 0 0 0 0 0 0 0 0 0 0 0 0 0 0 0 0 0 0 0 0 0 0 0 0 0 0 0 0 0 0 0 0 0 0 0 0 0 0 0 0 0 0 ];
Traffic[0]class1Average hops = 1 (1690117 samples)
traffic_manager/hop_stats_freq = [ 0 1690117 0 0 0 0 0 0 0 0 0 0 0 0 0 0 0 0 0 0 ];
=======Traffic[1]class0 ======
Traffic[1]class0Overall average latency = 6.82871 (2 samples)
Traffic[1]class0Overall average accepted rate = 0.00453704 (2 samples)
Traffic[1]class0Overall min accepted rate = 0 (2 samples)
traffic_manager/latency_stat_0_freq = [ 0 10441 111 59 68 394223 8017 10973 344457 18423 6472 6041 15220 7029 13881 737 2638 557 660 430 292 155 204 42 84 7 33 20 6 8 7 9 4 1 1 0 0 0 1 1 0 2 0 0 0 0 0 0 0 0 0 0 0 0 0 0 0 0 0 0 0 0 0 0 0 0 0 0 0 0 0 0 0 0 0 0 0 0 0 0 0 0 0 0 0 0 0 0 0 0 0 0 0 0 0 0 0 0 0 0 0 0 0 0 0 0 0 0 0 0 0 0 0 0 0 0 0 0 0 0 0 0 0 0 0 0 0 0 0 0 0 0 0 0 0 0 0 0 0 0 0 0 0 0 0 0 0 0 0 0 0 0 0 0 0 0 0 0 0 0 0 0 0 0 0 0 0 0 0 0 0 0 0 0 0 0 0 0 0 0 0 0 0 0 0 0 0 0 0 0 0 0 0 0 0 0 0 0 0 0 0 0 0 0 0 0 0 0 0 0 0 0 0 0 0 0 0 0 0 0 0 0 0 0 0 0 0 0 0 0 0 0 0 0 0 0 0 0 0 0 0 0 0 0 0 0 0 0 0 0 0 0 0 0 0 0 0 0 0 0 0 0 0 0 0 0 0 0 0 0 0 0 0 0 0 0 0 0 0 0 0 0 0 0 0 0 0 0 0 0 0 0 0 0 0 0 0 0 0 0 0 0 0 0 0 0 0 0 0 0 0 0 0 0 0 0 0 0 0 0 0 0 0 0 0 0 0 0 0 0 0 0 0 0 0 0 0 0 0 0 0 0 0 0 0 0 0 0 0 0 0 0 0 0 0 0 0 0 0 0 0 0 0 0 0 0 0 0 0 0 0 0 0 0 0 0 0 0 0 0 0 0 0 0 0 0 0 0 0 0 0 0 0 0 0 0 0 0 0 0 0 0 0 0 0 0 0 0 0 0 0 0 0 0 0 0 0 0 0 0 0 0 0 0 0 0 0 0 0 0 0 0 0 0 0 0 0 0 0 0 0 0 0 0 0 0 0 0 0 0 0 0 0 0 0 0 0 0 0 0 0 0 0 0 0 0 0 0 0 0 0 0 0 0 0 0 0 0 0 0 0 0 0 0 0 0 0 0 0 0 0 0 0 0 0 0 0 0 0 0 0 0 0 0 0 0 0 0 0 0 0 0 0 0 0 0 0 0 0 0 0 0 0 0 0 0 0 0 0 0 0 0 0 0 0 0 0 0 0 0 0 0 0 0 0 0 0 0 0 0 0 0 0 0 0 0 0 0 0 0 0 0 0 0 0 0 0 0 0 0 0 0 0 0 0 0 0 0 0 0 0 0 0 0 0 0 0 0 0 0 0 0 0 0 0 0 0 0 0 0 0 0 0 0 0 0 0 0 0 0 0 0 0 0 0 0 0 0 0 0 0 0 0 0 0 0 0 0 0 0 0 0 0 0 0 0 0 0 0 0 0 0 0 0 0 0 0 0 0 0 0 0 0 0 0 0 0 0 0 0 0 0 0 0 0 0 0 0 0 0 0 0 0 0 0 0 0 0 0 0 0 0 0 0 0 0 0 0 0 0 0 0 0 0 0 0 0 0 0 0 0 0 0 0 0 0 0 0 0 0 0 0 0 0 0 0 0 0 0 0 0 0 0 0 0 0 0 0 0 0 0 0 0 0 0 0 0 0 0 0 0 0 0 0 0 0 0 0 0 0 0 0 0 0 0 0 0 0 0 0 0 0 0 0 0 0 0 0 0 0 0 0 0 0 0 0 0 0 0 0 0 0 0 0 0 0 0 0 0 0 0 0 0 0 0 0 0 0 0 0 0 0 0 0 0 0 0 0 0 0 0 0 0 0 0 0 0 0 0 0 0 0 0 0 0 0 0 0 0 0 0 0 0 0 0 0 0 0 0 0 0 0 0 0 0 0 0 0 0 0 0 0 0 0 0 0 0 0 0 0 0 0 0 0 0 0 0 0 0 0 0 0 0 0 0 0 0 0 0 0 0 0 0 0 0 0 0 0 0 0 0 0 0 0 0 0 0 0 0 0 0 0 0 0 0 0 0 0 0 0 0 0 0 0 0 0 0 0 0 0 0 0 0 0 0 0 0 0 0 0 0 0 0 0 0 0 0 0 0 0 0 0 0 0 0 0 0 0 0 0 0 0 0 0 0 0 0 0 0 0 0 0 0 0 0 0 0 0 0 0 0 0 0 0 0 0 0 0 0 0 0 0 0 0 0 0 0 0 0 0 0 0 0 0 0 0 0 0 0 0 ];
Traffic[1]class1Average hops = 1 (1690117 samples)
traffic_manager/hop_stats_freq = [ 0 1690117 0 0 0 0 0 0 0 0 0 0 0 0 0 0 0 0 0 0 ];
----------------------------END-of-Interconnect-DETAILS-------------------------

gpgpu_simulation_time = 0 days, 13 hrs, 37 min, 54 sec (49074 sec)
gpgpu_simulation_rate = 547611 (inst/sec)
gpgpu_simulation_rate = 824 (cycle/sec)
Finished CUDA kernel calls                        
computing extra atoms on CPU


