

        *** GPGPU-Sim Simulator Version 3.2.1  [build 15629] ***


               1=functional simulation only, 0=detailed performance simulator)
GPGPU-Sim: Configuration options:

-network_mode                           1 # Interconnection network mode
-inter_config_file   config_fermi_islip.icnt # Interconnection network config file
-gpgpu_ptx_use_cuobjdump                    1 # Use cuobjdump to extract ptx and sass from binaries
-gpgpu_experimental_lib_support                    0 # Try to extract code from cuda libraries [Broken because of unknown cudaGetExportTable]
-gpgpu_ptx_convert_to_ptxplus                    0 # Convert SASS (native ISA) to ptxplus and run ptxplus
-gpgpu_ptx_force_max_capability                   20 # Force maximum compute capability
-gpgpu_ptx_inst_debug_to_file                    0 # Dump executed instructions' debug information to file
-gpgpu_ptx_inst_debug_file       inst_debug.txt # Executed instructions' debug output file
-gpgpu_ptx_inst_debug_thread_uid                    1 # Thread UID for executed instructions' debug output
-gpgpu_simd_model                       1 # 1 = post-dominator
-gpgpu_shader_core_pipeline              1536:32 # shader core pipeline config, i.e., {<nthread>:<warpsize>}
-gpgpu_tex_cache:l1  4:128:24,L:R:m:N,F:128:4,128:2 # per-shader L1 texture cache  (READ-ONLY) config  {<nsets>:<bsize>:<assoc>,<rep>:<wr>:<alloc>:<wr_alloc>,<mshr>:<N>:<merge>,<mq>:<rf>}
-gpgpu_const_cache:l1 64:64:2,L:R:f:N,A:2:32,4 # per-shader L1 constant memory cache  (READ-ONLY) config  {<nsets>:<bsize>:<assoc>,<rep>:<wr>:<alloc>:<wr_alloc>,<mshr>:<N>:<merge>,<mq>} 
-gpgpu_cache:il1     4:128:4,L:R:f:N,A:2:32,4 # shader L1 instruction cache config  {<nsets>:<bsize>:<assoc>,<rep>:<wr>:<alloc>:<wr_alloc>,<mshr>:<N>:<merge>,<mq>} 
-gpgpu_cache:dl1     32:128:4,L:L:m:N,A:32:8,8 # per-shader L1 data cache config  {<nsets>:<bsize>:<assoc>,<rep>:<wr>:<alloc>:<wr_alloc>,<mshr>:<N>:<merge>,<mq> | none}
-gpgpu_perfect_mem                      0 # enable perfect memory mode (no cache miss)
-n_regfile_gating_group                    4 # group of lanes that should be read/written together)
-gpgpu_clock_gated_reg_file                    0 # enable clock gated reg file for power calculations
-gpgpu_clock_gated_lanes                    0 # enable clock gated lanes for power calculations
-gpgpu_shader_registers                32768 # Number of registers per shader core. Limits number of concurrent CTAs. (default 8192)
-gpgpu_shader_cta                       8 # Maximum number of concurrent CTAs in shader (default 8)
-gpgpu_n_clusters                      14 # number of processing clusters
-gpgpu_n_cores_per_cluster                    1 # number of simd cores per cluster
-gpgpu_n_cluster_ejection_buffer_size                    8 # number of packets in ejection buffer
-gpgpu_n_ldst_response_buffer_size                    2 # number of response packets in ld/st unit ejection buffer
-gpgpu_shmem_size                   16384 # Size of shared memory per shader core (default 16kB)
-gpgpu_shmem_num_banks                   32 # Number of banks in the shared memory in each shader core (default 16)
-gpgpu_shmem_limited_broadcast                    0 # Limit shared memory to do one broadcast per cycle (default on)
-gpgpu_shmem_warp_parts                    1 # Number of portions a warp is divided into for shared memory bank conflict check 
-gpgpu_warpdistro_shader                   -1 # Specify which shader core to collect the warp size distribution from
-gpgpu_warp_issue_shader                    0 # Specify which shader core to collect the warp issue distribution from
-gpgpu_local_mem_map                    1 # Mapping from local memory space address to simulated GPU physical address space (default = enabled)
-gpgpu_num_reg_banks                   16 # Number of register banks (default = 8)
-gpgpu_reg_bank_use_warp_id                    0 # Use warp ID in mapping registers to banks (default = off)
-gpgpu_operand_collector_num_units_sp                    6 # number of collector units (default = 4)
-gpgpu_operand_collector_num_units_sfu                    8 # number of collector units (default = 4)
-gpgpu_operand_collector_num_units_mem                    2 # number of collector units (default = 2)
-gpgpu_operand_collector_num_units_gen                    0 # number of collector units (default = 0)
-gpgpu_operand_collector_num_in_ports_sp                    2 # number of collector unit in ports (default = 1)
-gpgpu_operand_collector_num_in_ports_sfu                    1 # number of collector unit in ports (default = 1)
-gpgpu_operand_collector_num_in_ports_mem                    1 # number of collector unit in ports (default = 1)
-gpgpu_operand_collector_num_in_ports_gen                    0 # number of collector unit in ports (default = 0)
-gpgpu_operand_collector_num_out_ports_sp                    2 # number of collector unit in ports (default = 1)
-gpgpu_operand_collector_num_out_ports_sfu                    1 # number of collector unit in ports (default = 1)
-gpgpu_operand_collector_num_out_ports_mem                    1 # number of collector unit in ports (default = 1)
-gpgpu_operand_collector_num_out_ports_gen                    0 # number of collector unit in ports (default = 0)
-gpgpu_coalesce_arch                   13 # Coalescing arch (default = 13, anything else is off for now)
-gpgpu_num_sched_per_core                    2 # Number of warp schedulers per core
-gpgpu_max_insn_issue_per_warp                    1 # Max number of instructions that can be issued per warp in one cycle by scheduler
-gpgpu_simt_core_sim_order                    1 # Select the simulation order of cores in a cluster (0=Fix, 1=Round-Robin)
-gpgpu_pipeline_widths        2,1,1,2,1,1,2 # Pipeline widths ID_OC_SP,ID_OC_SFU,ID_OC_MEM,OC_EX_SP,OC_EX_SFU,OC_EX_MEM,EX_WB
-gpgpu_num_sp_units                     2 # Number of SP units (default=1)
-gpgpu_num_sfu_units                    1 # Number of SF units (default=1)
-gpgpu_num_mem_units                    1 # Number if ldst units (default=1) WARNING: not hooked up to anything
-gpgpu_scheduler                      lrr # Scheduler configuration: < lrr | gto | two_level_active > If two_level_active:<num_active_warps>:<inner_prioritization>:<outer_prioritization>For complete list of prioritization values see shader.h enum scheduler_prioritization_typeDefault: gto
-gpgpu_dram_scheduler                    1 # 0 = fifo, 1 = FR-FCFS (defaul)
-gpgpu_dram_partition_queues              8:8:8:8 # i2$:$2d:d2$:$2i
-l2_ideal                               0 # Use a ideal L2 cache that always hit
-gpgpu_cache:dl2     64:128:16,L:B:m:W,A:32:4,4 # unified banked L2 data cache config  {<nsets>:<bsize>:<assoc>,<rep>:<wr>:<alloc>:<wr_alloc>,<mshr>:<N>:<merge>,<mq>}
-gpgpu_cache:dl2_texture_only                    0 # L2 cache used for texture only
-gpgpu_n_mem                            5 # number of memory modules (e.g. memory controllers) in gpu
-gpgpu_n_mem_per_ctrlr                    2 # number of memory chips per memory controller
-gpgpu_memlatency_stat                   14 # track and display latency statistics 0x2 enables MC, 0x4 enables queue logs
-gpgpu_frfcfs_dram_sched_queue_size                   16 # 0 = unlimited (default); # entries per chip
-gpgpu_dram_return_queue_size                    0 # 0 = unlimited (default); # entries per chip
-gpgpu_dram_buswidth                    4 # default = 4 bytes (8 bytes per cycle at DDR)
-gpgpu_dram_burst_length                    8 # Burst length of each DRAM request (default = 4 data bus cycle)
-dram_data_command_freq_ratio                    4 # Frequency ratio between DRAM data bus and command bus (default = 2 times, i.e. DDR)
-gpgpu_dram_timing_opt nbk=16:CCD=2:RRD=6:RCD=12:RAS=28:RP=12:RC=40: CL=12:WL=4:CDLR=5:WR=12:nbkgrp=4:CCDL=3:RTPL=2 # DRAM timing parameters = {nbk:tCCD:tRRD:tRCD:tRAS:tRP:tRC:CL:WL:tCDLR:tWR:nbkgrp:tCCDL:tRTPL}
-rop_latency                           60 # ROP queue latency (default 85)
-dram_latency                         100 # DRAM latency (default 30)
-gpgpu_mem_addr_mapping dramid@8;00000000.00000000.00000000.00000000.0000RRRR.RRRRRRRR.BBBBCCCC.CCSSSSSS # mapping memory address to dram model {dramid@<start bit>;<memory address map>}
-gpgpu_mem_addr_test                    0 # run sweep test to check address mapping for aliased address
-gpgpu_mem_address_mask                    1 # 0 = old addressing mask, 1 = new addressing mask, 2 = new add. mask + flipped bank sel and chip sel bits
-gpuwattch_xml_file         gpuwattch.xml # GPUWattch XML file
-power_simulation_enabled                    1 # Turn on power simulator (1=On, 0=Off)
-power_per_cycle_dump                    0 # Dump detailed power output each cycle
-power_trace_enabled                    1 # produce a file for the power trace (1=On, 0=Off)
-power_trace_zlevel                     6 # Compression level of the power trace output log (0=no comp, 9=highest)
-steady_power_levels_enabled                    0 # produce a file for the steady power levels (1=On, 0=Off)
-steady_state_definition                  8:4 # allowed deviation:number of samples
-gpgpu_max_cycle                        0 # terminates gpu simulation early (0 = no limit)
-gpgpu_max_insn                         0 # terminates gpu simulation early (0 = no limit)
-gpgpu_max_cta                          0 # terminates gpu simulation early (0 = no limit)
-gpgpu_runtime_stat                   500 # display runtime statistics such as dram utilization {<freq>:<flag>}
-gpgpu_flush_l1_cache                    0 # Flush L1 cache at the end of each kernel call
-gpgpu_flush_l2_cache                    0 # Flush L2 cache at the end of each kernel call
-gpgpu_deadlock_detect                    1 # Stop the simulation at deadlock (1=on (default), 0=off)
-gpgpu_ptx_instruction_classification                    0 # if enabled will classify ptx instruction types per kernel (Max 255 kernels now)
-gpgpu_ptx_sim_mode                     0 # Select between Performance (default) or Functional simulation (1)
-gpgpu_clock_domains 600.0:1200.0:600.0:450.0 # Clock Domain Frequencies in MhZ {<Core Clock>:<ICNT Clock>:<L2 Clock>:<DRAM Clock>}
-gpgpu_max_concurrent_kernel                    8 # maximum kernels that can run concurrently on GPU
-gpgpu_cflog_interval                    0 # Interval between each snapshot in control flow logger
-visualizer_enabled                     0 # Turn on visualizer output (1=On, 0=Off)
-visualizer_outputfile                 NULL # Specifies the output log file for visualizer
-visualizer_zlevel                      6 # Compression level of the visualizer output log (0=no comp, 9=highest)
-trace_enabled                          0 # Turn on traces
-trace_components                    none # comma seperated list of traces to enable. Complete list found in trace_streams.tup. Default none
-trace_sampling_core                    0 # The core which is printed using CORE_DPRINTF. Default 0
-enable_ptx_file_line_stats                    1 # Turn on PTX source line statistic profiling. (1 = On)
-ptx_line_stats_filename gpgpu_inst_stats.txt # Output file for PTX source line statistics.
-save_embedded_ptx                      0 # saves ptx files embedded in binary as <n>.ptx
-keep                                   0 # keep intermediate files created by GPGPU-Sim when interfacing with external programs
-gpgpu_ptx_save_converted_ptxplus                    0 # Saved converted ptxplus to a file
-ptx_opcode_latency_int         4,13,4,5,145 # Opcode latencies for integers <ADD,MAX,MUL,MAD,DIV>Default 1,1,19,25,145
-ptx_opcode_latency_fp          4,13,4,5,39 # Opcode latencies for single precision floating points <ADD,MAX,MUL,MAD,DIV>Default 1,1,1,1,30
-ptx_opcode_latency_dp         8,19,8,8,330 # Opcode latencies for double precision floating points <ADD,MAX,MUL,MAD,DIV>Default 8,8,8,8,335
-ptx_opcode_initiation_int            1,2,2,1,8 # Opcode initiation intervals for integers <ADD,MAX,MUL,MAD,DIV>Default 1,1,4,4,32
-ptx_opcode_initiation_fp            1,2,1,1,4 # Opcode initiation intervals for single precision floating points <ADD,MAX,MUL,MAD,DIV>Default1b15cb3ec0c266b0a1f63baf488a8df7  /tmp/tmp.zTpWhLubeG/cutcp__SIZE1_1
 1,1,1,1,5
-ptx_opcode_initiation_dp         8,16,8,8,130 # Opcode initiation intervals for double precision floating points <ADD,MAX,MUL,MAD,DIV>Default 8,8,8,8,130
DRAM Timing Options:
nbk                                    16 # number of banks
CCD                                     2 # column to column delay
RRD                                     6 # minimal delay between activation of rows in different banks
RCD                                    12 # row to column delay
RAS                                    28 # time needed to activate row
RP                                     12 # time needed to precharge (deactivate) row
RC                                     40 # row cycle time
CDLR                                    5 # switching from write to read (changes tWTR)
WR                                     12 # last data-in to row precharge
CL                                     12 # CAS latency
WL                                      4 # Write latency
nbkgrp                                  4 # number of bank groups
CCDL                                    3 # column to column delay between accesses to different bank groups
RTPL                                    2 # read to precharge delay between accesses to different bank groups
addr_dec_mask[CHIP]  = 0000000000000000 	high:64 low:0
addr_dec_mask[BK]    = 000000000000f000 	high:16 low:12
addr_dec_mask[ROW]   = 000000000fff0000 	high:28 low:16
addr_dec_mask[COL]   = 0000000000000fff 	high:12 low:0
addr_dec_mask[BURST] = 000000000000003f 	high:6 low:0
*** Initializing Memory Statistics ***
self exe links to: /tmp/tmp.zTpWhLubeG/cutcp__SIZE1_1
Running md5sum using "md5sum /tmp/tmp.zTpWhLubeG/cutcp__SIZE1_1 "
Running cuobjdump using "$CUDA_INSTALL_PATH/bin/cuobjdump -ptx -elf -sass /tmp/tmp.zTpWhLubeG/cutcp__SIZE1_1 > _cuobjdump_complete_output_f2P22W"
Parsing file _cuobjdump_complete_output_f2P22W
######### cuobjdump parser ########
## Adding new section PTX
Adding ptx filename: _cuobjdump_1.ptx
Adding arch: sm_13
Adding identifier: benchmarks/cutcp/cutcp.cu
## Adding new section ELF
Adding arch: sm_13
Adding identifier: benchmarks/cutcp/cutcp.cu
Done parsing!!!
Adding _cuobjdump_1.ptx with cubin handle 1
Running: cat _ptx_YGX8zq | sed 's/.version 1.5/.version 1.4/' | sed 's/, texmode_independent//' | sed 's/\(\.extern \.const\[1\] .b8 \w\+\)\[\]/\1\[1\]/' | sed 's/const\[.\]/const\[0\]/g' > _ptx2_Rifg7T
GPGPU-Sim PTX registering constant NbrListLen (4 bytes) to name mapping
GPGPU-Sim PTX registering constant NbrList (15972 bytes) to name mapping
read 96603 atoms from file '/home/cnugteren/software/parboil-2.5/datasets/cutcp/large/input/watbox.sl100.pqr'
extent of domain is:
  minimum -49.998 -49.997 -49.996
  maximum 50 49.99 49.971
padding domain by 0.5 Angstroms
domain lengths are 100.998 by 100.987 by 100.967

Invoking CUDA kernel on 2 region planes...
  computing plane 0
kernel '_Z29cuda_cutoff_potential_latticeiiP6float4fffPfi' transfer to GPU hardware scheduler
kernel_name = _Z29cuda_cutoff_potential_latticeiiP6float4fffPfi 
kernel_launch_uid = 1 
gpu_sim_cycle = 18200325
gpu_sim_insn = 12113348856
gpu_ipc =     665.5568
gpu_tot_sim_cycle = 18200325
gpu_tot_sim_insn = 12113348856
gpu_tot_ipc =     665.5568
gpu_tot_issued_cta = 0
gpu_stall_dramfull = 20636
gpu_stall_icnt2sh    = 50776
gpu_total_sim_rate=384721
Cache L1D_000:	Size = 16384 B (32 Set x 4-way x 128 byte line)
		Access = 129980, Miss = 62303 (0.479), PendingHit = 138 (0.00106)
Cache L1D_001:	Size = 16384 B (32 Set x 4-way x 128 byte line)
		Access = 129310, Miss = 61539 (0.476), PendingHit = 103 (0.000797)
Cache L1D_002:	Size = 16384 B (32 Set x 4-way x 128 byte line)
		Access = 128640, Miss = 59826 (0.465), PendingHit = 111 (0.000863)
Cache L1D_003:	Size = 16384 B (32 Set x 4-way x 128 byte line)
		Access = 129310, Miss = 57822 (0.447), PendingHit = 592 (0.00458)
Cache L1D_004:	Size = 16384 B (32 Set x 4-way x 128 byte line)
		Access = 128640, Miss = 58817 (0.457), PendingHit = 451 (0.00351)
Cache L1D_005:	Size = 16384 B (32 Set x 4-way x 128 byte line)
		Access = 129980, Miss = 57767 (0.444), PendingHit = 149 (0.00115)
Cache L1D_006:	Size = 16384 B (32 Set x 4-way x 128 byte line)
		Access = 129980, Miss = 58457 (0.45), PendingHit = 1100 (0.00846)
Cache L1D_007:	Size = 16384 B (32 Set x 4-way x 128 byte line)
		Access = 129310, Miss = 60514 (0.468), PendingHit = 107 (0.000827)
Cache L1D_008:	Size = 16384 B (32 Set x 4-way x 128 byte line)
		Access = 128640, Miss = 59640 (0.464), PendingHit = 281 (0.00218)
Cache L1D_009:	Size = 16384 B (32 Set x 4-way x 128 byte line)
		Access = 130650, Miss = 60003 (0.459), PendingHit = 492 (0.00377)
Cache L1D_010:	Size = 16384 B (32 Set x 4-way x 128 byte line)
		Access = 128640, Miss = 59767 (0.465), PendingHit = 307 (0.00239)
Cache L1D_011:	Size = 16384 B (32 Set x 4-way x 128 byte line)
		Access = 129310, Miss = 59514 (0.46), PendingHit = 421 (0.00326)
Cache L1D_012:	Size = 16384 B (32 Set x 4-way x 128 byte line)
		Access = 129980, Miss = 55913 (0.43), PendingHit = 629 (0.00484)
Cache L1D_013:	Size = 16384 B (32 Set x 4-way x 128 byte line)
		Access = 129310, Miss = 61553 (0.476), PendingHit = 252 (0.00195)
total_dl1_misses=833435
total_dl1_accesses=1811680
total_dl1_miss_rate= 0.460034
Shader 0 dynamic_warp_id issue ditsribution:
dynamic_warp_id:
0, 1, 2, 3, 4, 5, 6, 7, 8, 9, 10, 11, 12, 13, 14, 15, 16, 17, 18, 19, 20, 21, 22, 23, 24, 25, 26, 27, 28, 29, 30, 31, 32, 33, 34, 35, 36, 37, 38, 39, 40, 41, 42, 43, 44, 45, 46, 47, 48, 49, 50, 51, 52, 53, 54, 55, 56, 57, 58, 59, 60, 61, 62, 63, 64, 65, 66, 67, 68, 69, 70, 71, 72, 73, 74, 75, 76, 77, 78, 79, 80, 81, 82, 83, 84, 85, 86, 87, 88, 89, 90, 91, 92, 93, 94, 95, 96, 97, 98, 99, 100, 101, 102, 103, 104, 105, 106, 107, 108, 109, 110, 111, 112, 113, 114, 115, 116, 117, 118, 119, 120, 121, 122, 123, 124, 125, 126, 127, 128, 129, 130, 131, 132, 133, 134, 135, 136, 137, 138, 139, 140, 141, 142, 143, 144, 145, 146, 147, 148, 149, 150, 151, 152, 153, 154, 155, 156, 157, 158, 159, 160, 161, 162, 163, 164, 165, 166, 167, 168, 169, 170, 171, 172, 173, 174, 175, 176, 177, 178, 179, 180, 181, 182, 183, 184, 185, 186, 187, 188, 189, 190, 191, 192, 193, 194, 195, 196, 197, 198, 199, 200, 201, 202, 203, 204, 205, 206, 207, 208, 209, 210, 211, 212, 213, 214, 215, 216, 217, 218, 219, 220, 221, 222, 223, 224, 225, 226, 227, 228, 229, 230, 231, 232, 233, 234, 235, 236, 237, 238, 239, 240, 241, 242, 243, 244, 245, 246, 247, 248, 249, 250, 251, 252, 253, 254, 255, 256, 257, 258, 259, 260, 261, 262, 263, 264, 265, 266, 267, 268, 269, 270, 271, 272, 273, 274, 275, 276, 277, 278, 279, 280, 281, 282, 283, 284, 285, 286, 287, 288, 289, 290, 291, 292, 293, 294, 295, 296, 297, 298, 299, 300, 301, 302, 303, 304, 305, 306, 307, 308, 309, 310, 311, 312, 313, 314, 315, 316, 317, 318, 319, 320, 321, 322, 323, 324, 325, 326, 327, 328, 329, 330, 331, 332, 333, 334, 335, 336, 337, 338, 339, 340, 341, 342, 343, 344, 345, 346, 347, 348, 349, 350, 351, 352, 353, 354, 355, 356, 357, 358, 359, 360, 361, 362, 363, 364, 365, 366, 367, 368, 369, 370, 371, 372, 373, 374, 375, 376, 377, 378, 379, 380, 381, 382, 383, 384, 385, 386, 387, 388, 389, 390, 391, 392, 393, 394, 395, 396, 397, 398, 399, 400, 401, 402, 403, 404, 405, 406, 407, 408, 409, 410, 411, 412, 413, 414, 415, 416, 417, 418, 419, 420, 421, 422, 423, 424, 425, 426, 427, 428, 429, 430, 431, 432, 433, 434, 435, 436, 437, 438, 439, 440, 441, 442, 443, 444, 445, 446, 447, 448, 449, 450, 451, 452, 453, 454, 455, 456, 457, 458, 459, 460, 461, 462, 463, 464, 465, 466, 467, 468, 469, 470, 471, 472, 473, 474, 475, 476, 477, 478, 479, 480, 481, 482, 483, 484, 485, 486, 487, 488, 489, 490, 491, 492, 493, 494, 495, 496, 497, 498, 499, 500, 501, 502, 503, 504, 505, 506, 507, 508, 509, 510, 511, 512, 513, 514, 515, 516, 517, 518, 519, 520, 521, 522, 523, 524, 525, 526, 527, 528, 529, 530, 531, 532, 533, 534, 535, 536, 537, 538, 539, 540, 541, 542, 543, 544, 545, 546, 547, 548, 549, 550, 551, 552, 553, 554, 555, 556, 557, 558, 559, 560, 561, 562, 563, 564, 565, 566, 567, 568, 569, 570, 571, 572, 573, 574, 575, 576, 577, 578, 579, 580, 581, 582, 583, 584, 585, 586, 587, 588, 589, 590, 591, 592, 593, 594, 595, 596, 597, 598, 599, 600, 601, 602, 603, 604, 605, 606, 607, 608, 609, 610, 611, 612, 613, 614, 615, 616, 617, 618, 619, 620, 621, 622, 623, 624, 625, 626, 627, 628, 629, 630, 631, 632, 633, 634, 635, 636, 637, 638, 639, 640, 641, 642, 643, 644, 645, 646, 647, 648, 649, 650, 651, 652, 653, 654, 655, 656, 657, 658, 659, 660, 661, 662, 663, 664, 665, 666, 667, 668, 669, 670, 671, 672, 673, 674, 675, 676, 677, 678, 679, 680, 681, 682, 683, 684, 685, 686, 687, 688, 689, 690, 691, 692, 693, 694, 695, 696, 697, 698, 699, 700, 701, 702, 703, 704, 705, 706, 707, 708, 709, 710, 711, 712, 713, 714, 715, 716, 717, 718, 719, 720, 721, 722, 723, 724, 725, 726, 727, 728, 729, 730, 731, 732, 733, 734, 735, 736, 737, 738, 739, 740, 741, 742, 743, 744, 745, 746, 747, 748, 749, 750, 751, 752, 753, 754, 755, 756, 757, 758, 759, 760, 761, 762, 763, 764, 765, 766, 767, 768, 769, 770, 771, 772, 773, 774, 775, 
distro:
26494, 27007, 26647, 27232, 27377, 27926, 27521, 28133, 26045, 26432, 26108, 26594, 26588, 27182, 26687, 27281, 26951, 27428, 27104, 27581, 27349, 27997, 27475, 28069, 15458, 15674, 15512, 15755, 24832, 25057, 24922, 25201, 31901, 32243, 32072, 32423, 32558, 32990, 32711, 33170, 31679, 32093, 31868, 32336, 32532, 32982, 32694, 33090, 32303, 32762, 32456, 32879, 28921, 29281, 29101, 29470, 23404, 23584, 23530, 23719, 27754, 28006, 27907, 28105, 37174, 37480, 37426, 37777, 37298, 37595, 37442, 37955, 37754, 38141, 37880, 38375, 37518, 37842, 37725, 38040, 36031, 36265, 36274, 36499, 32717, 32924, 32879, 33158, 37585, 37531, 37738, 37729, 42257, 42239, 42464, 42437, 42647, 42710, 42935, 43007, 42178, 42232, 42358, 42394, 41531, 41540, 41756, 41720, 41683, 41692, 41818, 41881, 33107, 33089, 33251, 33341, 26336, 26291, 26462, 26426, 36876, 36876, 37092, 37029, 44404, 44395, 44674, 44647, 42709, 42772, 42907, 42970, 43829, 43910, 44144, 44081, 42260, 42404, 42512, 42656, 41698, 41707, 41932, 41959, 32850, 32742, 33039, 32922, 42782, 42863, 43106, 43133, 43313, 43349, 43547, 43646, 43137, 43209, 43425, 43443, 44520, 44709, 44799, 44880, 43336, 43408, 43606, 43633, 43821, 43830, 44064, 44064, 22560, 22578, 22668, 22704, 26446, 26518, 26608, 26644, 42154, 42136, 42406, 42487, 43427, 43400, 43661, 43562, 43279, 43216, 43432, 43549, 44880, 44682, 45159, 44916, 43537, 43420, 43789, 43690, 42389, 42362, 42515, 42632, 28235, 28343, 28370, 28487, 37280, 37415, 37478, 37595, 43162, 43225, 43549, 43504, 42981, 43053, 43224, 43278, 44649, 44514, 44910, 44685, 42585, 42558, 42774, 42765, 42162, 42198, 42306, 42468, 33836, 33854, 34052, 34034, 22664, 22718, 22790, 22853, 43573, 43474, 43744, 43690, 43907, 43871, 44123, 44150, 42999, 42981, 43251, 43206, 42703, 42667, 42874, 42946, 42854, 42755, 43097, 43007, 43014, 42996, 43239, 43311, 22656, 22656, 22827, 22791, 32304, 32331, 32493, 32529, 43009, 42955, 43243, 43117, 44352, 44262, 44568, 44514, 44358, 44313, 44619, 44565, 42872, 42800, 43187, 43106, 43785, 43884, 44019, 44118, 39880, 39844, 40087, 40132, 28241, 28250, 28403, 28403, 42788, 42779, 43031, 43067, 42288, 42171, 42531, 42432, 43134, 43206, 43395, 43431, 42425, 42470, 42776, 42686, 43908, 43827, 44115, 44061, 44185, 44239, 44464, 44401, 28195, 28339, 28339, 28492, 43051, 43096, 43339, 43321, 44228, 44309, 44489, 44516, 42914, 42941, 43229, 43193, 42263, 42218, 42479, 42479, 43596, 43506, 43848, 43767, 42543, 42579, 42849, 42858, 28373, 28256, 28517, 28454, 26811, 26784, 26910, 26919, 42359, 42458, 42638, 42719, 42956, 42929, 43235, 43190, 43158, 43095, 43401, 43302, 42566, 42386, 42791, 42683, 43207, 43234, 43522, 43495, 42232, 42295, 42529, 42565, 22532, 22469, 22604, 22577, 43602, 43674, 43899, 43890, 43434, 43434, 43650, 43722, 42649, 42649, 42883, 42892, 42137, 42200, 42497, 42479, 43748, 43631, 43928, 43964, 43897, 43987, 44194, 44266, 22566, 22647, 22746, 22728, 27592, 27637, 27754, 27781, 43628, 43610, 43853, 43907, 44142, 44061, 44340, 44295, 43196, 43124, 43430, 43286, 41815, 41851, 42103, 42004, 44316, 44325, 44559, 44487, 43669, 43507, 43930, 43813, 28348, 28411, 28510, 28492, 39204, 39222, 39312, 39483, 43031, 43067, 43238, 43229, 43563, 43374, 43734, 43590, 41348, 41447, 41681, 41672, 43386, 43368, 43593, 43638, 44253, 44154, 44505, 44451, 34392, 34446, 34500, 34626, 28333, 28315, 28513, 28450, 42613, 42721, 42919, 42955, 41745, 41700, 41997, 41943, 42188, 42251, 42467, 42494, 43265, 43382, 43598, 43661, 44175, 44157, 44490, 44427, 43605, 43623, 43866, 43830, 27282, 27165, 27399, 27345, 43493, 43286, 43673, 43637, 43592, 43475, 43844, 43736, 42405, 42207, 42684, 42477, 43311, 43383, 43527, 43572, 42698, 42716, 42995, 42896, 41691, 41682, 41916, 41970, 26626, 26563, 26752, 26689, 32055, 32046, 32244, 32226, 43110, 43092, 43362, 43353, 42798, 42780, 43023, 43041, 43609, 43645, 43852, 43879, 42599, 42527, 42824, 42734, 41634, 41580, 41859, 41877, 38738, 38738, 38963, 39008, 27124, 27205, 27250, 27358, 42388, 42451, 42676, 42676, 42339, 42276, 42627, 42582, 42464, 42392, 42725, 42608, 44051, 44042, 44258, 44321, 43007, 42809, 43232, 43043, 42176, 42158, 42401, 42383, 26485, 26494, 26656, 26665, 37013, 37004, 37256, 37292, 43490, 43571, 43661, 43751, 43151, 43169, 43349, 43412, 43807, 43888, 44077, 44176, 43695, 43740, 43983, 43920, 41853, 41925, 42123, 42195, 32999, 33026, 33215, 33224, 31774, 31756, 32008, 31963, 41892, 41937, 42189, 42126, 42869, 42932, 43121, 43175, 43851, 43914, 44058, 44112, 43062, 43044, 43431, 43269, 44300, 44444, 44570, 44642, 37864, 37999, 38116, 38179, 22460, 22505, 22622, 22685, 38523, 38388, 38811, 38748, 38914, 38734, 39175, 39031, 38556, 38439, 38799, 38700, 40287, 40062, 40584, 40287, 39045, 38874, 39315, 39126, 39504, 39378, 39873, 39639, 20719, 20692, 20827, 20773, 25815, 25572, 25968, 25743, 26436, 26238, 26589, 26355, 34023, 33744, 34149, 33870, 35709, 35268, 35889, 35421, 35070, 34728, 35259, 34998, 35248, 34870, 35437, 34987, 31111, 30688, 31363, 30787, 31534, 30985, 31714, 31255, 26101, 25579, 26155, 25696, 28713, 28326, 28893, 28488, 28990, 28522, 29161, 28693, 29285, 28754, 29411, 28898, 29703, 29154, 29883, 29262, 28789, 28285, 29041, 28510, 23611, 23134, 23773, 23242, 21021, 20652, 21093, 20742, 23474, 23114, 23600, 23150, 23809, 23278, 23953, 23350, 24188, 23648, 24350, 23738, 23908, 23368, 24034, 23449, 22922, 22517, 23093, 22625, 18925, 18538, 19051, 18628, 14484, 14250, 14502, 14277, 
gpgpu_n_tot_thrd_icount = 12911309440
gpgpu_n_tot_w_icount = 403478420
gpgpu_n_icache_hits = 219780655
gpgpu_n_icache_misses = 2015
gpgpu_n_l1dcache_read_hits = 973112
gpgpu_n_l1dcache_read_misses = 838568
gpgpu_n_l1dcache_write_accesses = 10816
gpgpu_n_l1dcache_wirte_misses = 10816
gpgpu_n_tcache_hits = 0
gpgpu_n_tcache_misses = 0
gpgpu_n_ccache_hits = 18206324
gpgpu_n_ccache_misses = 3488
gpgpu_n_stall_shd_mem = 2090234
gpgpu_n_mem_read_local = 0
gpgpu_n_mem_write_local = 0
gpgpu_n_mem_read_global = 833435
gpgpu_n_mem_write_global = 10816
gpgpu_n_mem_texture = 0
gpgpu_n_mem_const = 924
gpgpu_n_load_insn  = 57973760
gpgpu_n_store_insn = 692224
gpgpu_n_shmem_insn = 1435609022
gpgpu_n_tex_insn = 0
gpgpu_n_const_mem_insn = 87652864
gpgpu_n_param_mem_insn = 987034558
gpgpu_n_shmem_bkconflict = 0
gpgpu_n_cache_bkconflict = 0
gpgpu_n_intrawarp_mshr_merge = 0
gpgpu_n_cmem_portconflict = 283920
gpgpu_stall_shd_mem[c_mem][bk_conf] = 283920
gpgpu_stall_shd_mem[c_mem][mshr_rc] = 0
gpgpu_stall_shd_mem[c_mem][icnt_rc] = 0
gpgpu_stall_shd_mem[t_mem][mshr_rc] = 0
gpgpu_stall_shd_mem[t_mem][icnt_rc] = 0
gpgpu_stall_shd_mem[s_mem][bk_conf] = 903136
gpgpu_stall_shd_mem[gl_mem][bk_conf] = 0
gpgpu_stall_shd_mem[gl_mem][coal_stall] = 903178
gpgpu_stall_shd_mem[g_mem_ld][mshr_rc] = 0
gpgpu_stall_shd_mem[g_mem_ld][icnt_rc] = 0
gpgpu_stall_shd_mem[g_mem_ld][wb_icnt_rc] = 0
gpgpu_stall_shd_mem[g_mem_ld][wb_rsrv_fail] = 0
gpgpu_stall_shd_mem[g_mem_st][mshr_rc] = 0
gpgpu_stall_shd_mem[g_mem_st][icnt_rc] = 0
gpgpu_stall_shd_mem[g_mem_st][wb_icnt_rc] = 0
gpgpu_stall_shd_mem[g_mem_st][wb_rsrv_fail] = 0
gpgpu_stall_shd_mem[l_mem_ld][mshr_rc] = 0
gpgpu_stall_shd_mem[l_mem_ld][icnt_rc] = 0
gpgpu_stall_shd_mem[l_mem_ld][wb_icnt_rc] = 0
gpgpu_stall_shd_mem[l_mem_ld][wb_rsrv_fail] = 0
gpgpu_stall_shd_mem[l_mem_st][mshr_rc] = 0
gpgpu_stall_shd_mem[l_mem_st][icnt_rc] = 0
gpgpu_stall_shd_mem[l_mem_ld][wb_icnt_rc] = 0
gpgpu_stall_shd_mem[l_mem_ld][wb_rsrv_fail] = 0
gpu_reg_bank_conflict_stalls = 0
Warp Occupancy Distribution:
Stall:12263410	W0_Idle:109385	W0_Scoreboard:92833861	W1:1163250	W2:788031	W3:874305	W4:843480	W5:542115	W6:810153	W7:445527	W8:846018	W9:470268	W10:581112	W11:454743	W12:696015	W13:440748	W14:651438	W15:440217	W16:822593	W17:401139	W18:575964	W19:399249	W20:641556	W21:428319	W22:622890	W23:408276	W24:700578	W25:409419	W26:576828	W27:369378	W28:749367	W29:589293	W30:588303	W31:1062855	W32:384084993
maxmrqlatency = 111 
maxdqlatency = 0 
maxmflatency = 530 
averagemflatency = 71 
max_icnt2mem_latency = 283 
max_icnt2sh_latency = 18200324 
mrq_lat_table:9091 	3061 	5096 	980 	4920 	5361 	331 	0 	0 	0 	0 	0 	0 	0 	0 	0 	0 	0 	0 	0 	0 	0 	0 	0 	0 	0 	0 	0 	0 	0 	0 	0 	
dq_lat_table:0 	0 	0 	0 	0 	0 	0 	0 	0 	0 	0 	0 	0 	0 	0 	0 	0 	0 	0 	0 	0 	0 	0 	0 	0 	0 	0 	0 	0 	0 	0 	0 	
mf_lat_table:0 	0 	0 	0 	0 	0 	822247 	21662 	1262 	4 	0 	0 	0 	0 	0 	0 	0 	0 	0 	0 	0 	0 	0 	0 	0 	0 	0 	0 	0 	0 	0 	0 	
icnt2mem_lat_table:142 	831745 	11785 	225 	315 	325 	531 	262 	27 	0 	0 	0 	0 	0 	0 	0 	0 	0 	0 	0 	0 	0 	0 	0 	
icnt2sh_lat_table:0 	402727 	424529 	7084 	19 	0 	0 	0 	0 	0 	0 	0 	0 	0 	0 	0 	0 	168 	168 	364 	656 	1172 	2340 	4728 	
mf_lat_pw_table:1220 	0 	0 	0 	0 	0 	32437 	348 	5 	0 	0 	0 	0 	0 	0 	0 	0 	0 	0 	0 	0 	0 	0 	0 	0 	0 	0 	0 	0 	0 	0 	0 	
maximum concurrent accesses to same row:
dram[0]:        64        64        64        64        64        64        64        64        64        64        64        64        64        64        64        64 
dram[1]:        64        64        64        64        64        64        64        64        64        64        64        64        64        64        64        64 
dram[2]:        64        64        64        64        64        64        64        64        64        64        64        64        64        64        64        64 
dram[3]:        64        64        64        64        64        64        64        64        64        64        64        64        64        64        64        64 
dram[4]:        64        64        64        64        64        64        64        64        64        64        64        64        64        64        64        64 
maximum service time to same row:
dram[0]:   4563543   4549403   4682295   4550637   4551121   4773668   4668276   4418791   4599676   4632072   4508899   4499618   4621123   4559195   4429000   4547212 
dram[1]:   4563551   4547799   4682293   4550637   4551127   4773668   4668272   4418783   4599683   4632069   4511681   4499537   4621133   4559187   4431185   4547211 
dram[2]:   4563235   4550277   4676713   4549212   4568797   4778775   4670403   4414587   4635167   4654448   4484276   4494599   4627553   4561402   4431185   4553350 
dram[3]:   4555367   4549695   4676709   4543543   4568811   4778780   4679469   4414579   4635161   4654433   4434019   4522290   4627564   4561403   4439952   4553376 
dram[4]:   4551498   4559847   4681393   4537592   4601540   4780114   4688327   4381566   4639281   4655556   3880480   4532808   4627900   4554923   4431022   4565531 
average row accesses per activate:
dram[0]:  8.250000  8.186047  7.183673 10.057143 29.090910 29.090910 17.777779 18.105263 13.538462  9.894737  9.244445  9.904762 10.400000 11.870968 16.000000  8.000000 
dram[1]:  8.619047  7.652174  7.183673  8.186047 35.555557 29.090910 22.857143 18.105263 16.000000  8.545455  9.043478 10.146341  9.674418 11.030303 14.666667  7.822222 
dram[2]:  6.830189  7.822222  8.380953  7.652174 35.555557 29.090910 20.000000 23.066668 13.538462  9.894737  8.320000  9.244445 10.666667  9.282051 16.000000  7.183673 
dram[3]:  8.395349  7.652174  8.000000  8.585366 35.555557 24.615385 20.000000 23.066668 12.571428 10.000000  8.489796  9.904762 10.947369 11.677420 17.600000  7.040000 
dram[4]:  7.200000  8.585366  6.518518  8.333333 29.090910 29.090910 26.666666 20.352942 12.137931  9.268292  8.666667  9.454545  9.454545 10.400000 16.000000  8.186047 
average row locality = 28840/2661 = 10.838031
number of total memory accesses made:
dram[0]:         0         0         0         0         0         0         0         0         0         0         0         0         0         0         0         0 
dram[1]:         0         0         0         0         0         0         0         0         0         0         0         0         0         0         0         0 
dram[2]:         0         0         0         0         0         0         0         0         0         0         0         0         0         0         0         0 
dram[3]:         0         0         0         0         0         0         0         0         0         0         0         0         0         0         0         0 
dram[4]:         0         0         0         0         0         0         0         0         0         0         0         0         0         0         0         0 
total accesses: 0
min_bank_accesses = 0!
min_chip_accesses = 0!
number of total read accesses:
dram[0]:       235       224       224       224       192       192       192       216       224       236       256       256       256       232       224       224 
dram[1]:       234       224       224       224       192       192       192       216       224       236       256       256       256       230       224       224 
dram[2]:       234       224       224       224       192       192       192       218       224       236       256       256       256       228       224       224 
dram[3]:       233       224       224       224       192       192       192       218       224       238       256       256       256       228       224       224 
dram[4]:       232       224       224       222       192       192       192       218       224       238       256       256       256       230       224       224 
total reads: 18024
bank skew: 256/192 = 1.33
chip skew: 3607/3604 = 1.00
number of total write accesses:
dram[0]:       128       128       128       128       128       128       128       128       128       140       160       160       160       136       128       128 
dram[1]:       128       128       128       128       128       128       128       128       128       140       160       160       160       134       128       128 
dram[2]:       128       128       128       128       128       128       128       128       128       140       160       160       160       134       128       128 
dram[3]:       128       128       128       128       128       128       128       128       128       142       160       160       160       134       128       128 
dram[4]:       128       128       128       128       128       128       128       128       128       142       160       160       160       134       128       128 
total reads: 10816
bank skew: 160/128 = 1.25
chip skew: 2164/2162 = 1.00
average mf latency per bank:
dram[0]:       2109      2332      2648      1669      1560      2093      1708      1662      2684      2354      1811      2277      2120      1446      2314      2638
dram[1]:       2107      2343      2644      1661      1572      2103      1699      1662      2713      2353      1811      2293      2099      1442      2315      2639
dram[2]:       2128      2324      2637      1686      1570      2139      1709      1633      2682      2354      1813      2325      2115      1445      2307      2635
dram[3]:       2117      2318      2638      1716      1552      2109      1724      1641      2659      2353      1825      2269      2135      1449      2289      2645
dram[4]:       2120      2324      2643      1709      1559      2101      1721      1634      2667      2342      1828      2266      2137      1449      2279      2643
maximum mf latency per bank:
dram[0]:        387       240       243       244       416       242       244       296       391       245       299       372       288       473       496       268
dram[1]:        275       244       243       255       314       245       285       378       383       245       389       431       244       340       294       245
dram[2]:        328       254       242       239       352       417       244       338       245       243       489       530       247       293       451       247
dram[3]:        247       253       243       244       399       297       274       390       336       271       448       362       270       350       362       274
dram[4]:        351       243       244       241       388       241       244       307       424       245       330       311       244       429       318       246

Number of Memory Banks Accessed per Memory Operation per Warp (from 0):
0	0	0	0	0	0	0	0	0	0	0	0	0	0	0	0	0	0	0	0	0	0	0	0	0	0	0	0	0	0	0	0	0	0	0	0	0	0	0	0	0	0	0	0	0	0	0	0	0	0	0	0	0	0	0	0	0	0	0	0	0	0	0	0	0	0	0	0	0	0	0	0	0	0	0	0	0	0	0	0	
Average # of Memory Banks Accessed per Memory Operation per Warp=-nan

position of mrq chosen
0	0	0	0	0	0	0	0	0	0	0	0	0	0	0	0	

average position of mrq chosen = -nan
gpgpu_l2_write_miss = 0
gpgpu_l2_write_access = 0
gpgpu_l2_read_miss = 0
gpgpu_l2_read_access = 0
Cache L2_bank_000:
MSHR contents

DRAM[0]: 16 bks, busW=4 BL=8 CL=12, tRRD=2 tCCD=6, tRCD=12 tRAS=28 tRP=12 tRC=40
n_cmd=13650243 n_nop=13637679 n_act=519 n_pre=503 n_req=5771 n_rd=7214 n_write=4328 bw_util=0.001691
n_activity=99788 dram_eff=0.2313
bk0: 470a 13647329i bk1: 448a 13647197i bk2: 448a 13647225i bk3: 448a 13647232i bk4: 384a 13647055i bk5: 384a 13647013i bk6: 384a 13646808i bk7: 432a 13646774i bk8: 448a 13646365i bk9: 472a 13646562i bk10: 512a 13646813i bk11: 512a 13647437i bk12: 512a 13645968i bk13: 464a 13645671i bk14: 448a 13645416i bk15: 448a 13633844i 
dram_util_bins: 0 0 0 0 0 0 0 0 0 0
dram_eff_bins: 0 0 0 0 0 0 0 0 0 0
mrqq: max=6 avg=0.00399275
Cache L2_bank_001:
MSHR contents

DRAM[1]: 16 bks, busW=4 BL=8 CL=12, tRRD=2 tCCD=6, tRCD=12 tRAS=28 tRP=12 tRC=40
n_cmd=13650243 n_nop=13637663 n_act=532 n_pre=516 n_req=5766 n_rd=7208 n_write=4324 bw_util=0.00169
n_activity=99873 dram_eff=0.2309
bk0: 468a 13647417i bk1: 448a 13647451i bk2: 448a 13647487i bk3: 448a 13647038i bk4: 384a 13646806i bk5: 384a 13647000i bk6: 384a 13647271i bk7: 432a 13647026i bk8: 448a 13646433i bk9: 472a 13646325i bk10: 512a 13646719i bk11: 512a 13647361i bk12: 512a 13645903i bk13: 460a 13645650i bk14: 448a 13645158i bk15: 448a 13633369i 
dram_util_bins: 0 0 0 0 0 0 0 0 0 0
dram_eff_bins: 0 0 0 0 0 0 0 0 0 0
mrqq: max=6 avg=0.00399209
Cache L2_bank_002:
MSHR contents

DRAM[2]: 16 bks, busW=4 BL=8 CL=12, tRRD=2 tCCD=6, tRCD=12 tRAS=28 tRP=12 tRC=40
n_cmd=13650243 n_nop=13637635 n_act=546 n_pre=530 n_req=5766 n_rd=7208 n_write=4324 bw_util=0.00169
n_activity=100483 dram_eff=0.2295
bk0: 468a 13647285i bk1: 448a 13647301i bk2: 448a 13647352i bk3: 448a 13647246i bk4: 384a 13646910i bk5: 384a 13647084i bk6: 384a 13647107i bk7: 436a 13647253i bk8: 448a 13646275i bk9: 472a 13646498i bk10: 512a 13646558i bk11: 512a 13647455i bk12: 512a 13645771i bk13: 456a 13645628i bk14: 448a 13645247i bk15: 448a 13633107i 
dram_util_bins: 0 0 0 0 0 0 0 0 0 0
dram_eff_bins: 0 0 0 0 0 0 0 0 0 0
mrqq: max=6 avg=0.00397458
Cache L2_bank_003:
MSHR contents
MSHR: tag=0x80150e80, atomic=0 1 entries : 0x9714440 :  mf: uid=239825836, sid09:w05, part=3, addr=0x80150e80, load , size=128, unknown  status = IN_PARTITION_DRAM (18200323), 

DRAM[3]: 16 bks, busW=4 BL=8 CL=12, tRRD=2 tCCD=6, tRCD=12 tRAS=28 tRP=12 tRC=40
n_cmd=13650243 n_nop=13637675 n_act=524 n_pre=508 n_req=5769 n_rd=7208 n_write=4328 bw_util=0.00169
n_activity=99946 dram_eff=0.2308
bk0: 466a 13647182i bk1: 448a 13647184i bk2: 448a 13647193i bk3: 448a 13647062i bk4: 384a 13647023i bk5: 384a 13647166i bk6: 384a 13647175i bk7: 436a 13647210i bk8: 448a 13646517i bk9: 476a 13646501i bk10: 512a 13646444i bk11: 512a 13647275i bk12: 510a 13645810i bk13: 456a 13645803i bk14: 448a 13645360i bk15: 448a 13633645i 
dram_util_bins: 0 0 0 0 0 0 0 0 0 0
dram_eff_bins: 0 0 0 0 0 0 0 0 0 0
mrqq: max=5 avg=0.00402901
Cache L2_bank_004:
MSHR contents
MSHR: tag=0x80150f00, atomic=0 1 entries : 0x9714210 :  mf: uid=239825835, sid09:w06, part=4, addr=0x80150f00, load , size=128, unknown  status = IN_PARTITION_DRAM (18200323), 

DRAM[4]: 16 bks, busW=4 BL=8 CL=12, tRRD=2 tCCD=6, tRCD=12 tRAS=28 tRP=12 tRC=40
n_cmd=13650243 n_nop=13637635 n_act=545 n_pre=529 n_req=5768 n_rd=7206 n_write=4328 bw_util=0.00169
n_activity=100546 dram_eff=0.2294
bk0: 464a 13647049i bk1: 448a 13646979i bk2: 448a 13647289i bk3: 444a 13647540i bk4: 384a 13647094i bk5: 384a 13647032i bk6: 384a 13646983i bk7: 436a 13647180i bk8: 448a 13646656i bk9: 476a 13646564i bk10: 512a 13646688i bk11: 512a 13647326i bk12: 510a 13645874i bk13: 460a 13645540i bk14: 448a 13645263i bk15: 448a 13633024i 
dram_util_bins: 0 0 0 0 0 0 0 0 0 0
dram_eff_bins: 0 0 0 0 0 0 0 0 0 0
mrqq: max=6 avg=0.00394103
Cache L2_bank_000:	Size = 131072 B (64 Set x 16-way x 128 byte line)
		Access = 169067, Miss = 3607 (0.0213), PendingHit = 469 (0.00277)
Cache L2_bank_001:	Size = 131072 B (64 Set x 16-way x 128 byte line)
		Access = 169063, Miss = 3604 (0.0213), PendingHit = 465 (0.00275)
Cache L2_bank_002:	Size = 131072 B (64 Set x 16-way x 128 byte line)
		Access = 168983, Miss = 3604 (0.0213), PendingHit = 476 (0.00282)
Cache L2_bank_003:	Size = 131072 B (64 Set x 16-way x 128 byte line)
		Access = 169104, Miss = 3605 (0.0213), PendingHit = 481 (0.00284)
Cache L2_bank_004:	Size = 131072 B (64 Set x 16-way x 128 byte line)
		Access = 169140, Miss = 3604 (0.0213), PendingHit = 487 (0.00288)
L2 Cache Total Miss Rate = 0.021

icnt_total_pkts_mem_to_simt=4181673
icnt_total_pkts_simt_to_mem=888621

LD_mem_lat_dist  0 0 0 0 0 0 0 0 0 0 0 0 0 0 0 0 0 0 0 0 0 0 0 0 0 0 0
ST_mem_lat_dist  0 0 0 0 0 0 0 0 0 0 0 0 0 0 0 0 0 0 0 0 0 0 0 0 0 0 0
Traffic 0 Stat
%=================================
% Average latency = 1.13513
% Accepted packets = 0 at node 0 (avg = 0.0010614)
lat(1) = 1.13513;
thru(1,:) = [ 0 0 0 0 0 0 0 0 0 0 0 0 0 0 0.00488241 0.00488208 0.00487989 0.00488343 0.00488442 0 0 0 0 ];
% latency change    = 1
% throughput change = 1
Traffic 1 Stat
%=================================
% Average latency = 6.83133
% Accepted packets = 0 at node 14 (avg = 0.00499474)
lat(2) = 6.83133;
thru(2,:) = [ 0.0085865 0.00848144 0.00824603 0.00797087 0.00810744 0.00796343 0.00805821 0.00834065 0.00822049 0.00827068 0.00823793 0.00820329 0.00770876 0.00848337 0 0 0 0 0 0 0 0 0 ];
% latency change    = 0.833835
% throughput change = 0.787496
----------------------------Interconnect-DETAILS---------------------------------=======Traffic[0]class0 ======
Traffic[0]class0Overall average latency = 1.13513 (1 samples)
Traffic[0]class0Overall average accepted rate = 0.0010614 (1 samples)
Traffic[0]class0Overall min accepted rate = 0 (1 samples)
traffic_manager/latency_stat_0_freq = [ 0 828596 4827 217 149 7491 1159 394 1530 404 108 16 5 14 1 14 1 14 2 11 1 9 2 7 1 6 1 7 1 6 1 6 0 4 0 11 0 4 2 3 0 2 1 2 0 5 1 6 0 2 0 1 0 3 0 6 0 4 0 0 0 1 0 0 0 2 0 1 0 0 0 0 0 1 0 1 0 1 0 1 1 4 0 3 0 1 0 4 0 0 0 0 3 2 0 1 1 1 0 2 0 2 0 1 2 2 0 2 1 1 0 2 2 2 1 2 1 1 0 3 0 1 0 5 0 3 0 2 2 5 1 0 2 7 0 0 0 1 1 4 0 5 1 4 1 7 2 9 0 1 0 1 0 5 0 4 0 1 0 3 0 5 2 2 1 3 0 1 0 5 1 1 0 0 0 5 0 3 1 3 0 4 0 8 0 7 0 7 1 5 0 5 1 2 1 4 0 4 0 4 0 4 0 5 0 1 0 1 0 3 0 4 0 3 0 9 0 1 0 1 0 1 0 1 0 1 0 0 0 1 0 1 0 0 0 1 0 4 0 2 0 2 0 0 0 0 0 3 0 1 0 0 0 0 0 1 0 1 0 1 0 1 0 1 0 3 0 4 0 4 0 0 0 0 0 0 0 0 0 0 0 0 0 0 0 0 0 0 0 0 0 0 0 1 0 1 0 0 0 3 0 1 0 0 0 0 0 1 0 2 0 0 0 0 0 0 0 0 0 0 0 0 0 0 0 2 0 1 0 0 0 1 0 0 0 0 0 0 0 0 0 0 0 0 0 0 0 0 0 0 0 0 0 0 0 0 0 0 0 0 0 0 0 0 0 0 0 0 0 0 0 0 0 0 0 0 0 0 0 0 0 0 0 0 0 0 0 0 0 0 0 0 0 0 0 0 0 0 0 0 0 0 0 0 0 0 0 0 0 0 0 0 0 0 0 0 0 0 0 0 0 0 0 0 0 0 0 0 0 0 0 0 0 0 0 0 0 0 0 0 0 0 0 0 0 0 0 0 0 0 0 0 0 0 0 0 0 0 0 0 0 0 0 0 0 0 0 0 0 0 0 0 0 0 0 0 0 0 0 0 0 0 0 0 0 0 0 0 0 0 0 0 0 0 0 0 0 0 0 0 0 0 0 0 0 0 0 0 0 0 0 0 0 0 0 0 0 0 0 0 0 0 0 0 0 0 0 0 0 0 0 0 0 0 0 0 0 0 0 0 0 0 0 0 0 0 0 0 0 0 0 0 0 0 0 0 0 0 0 0 0 0 0 0 0 0 0 0 0 0 0 0 0 0 0 0 0 0 0 0 0 0 0 0 0 0 0 0 0 0 0 0 0 0 0 0 0 0 0 0 0 0 0 0 0 0 0 0 0 0 0 0 0 0 0 0 0 0 0 0 0 0 0 0 0 0 0 0 0 0 0 0 0 0 0 0 0 0 0 0 0 0 0 0 0 0 0 0 0 0 0 0 0 0 0 0 0 0 0 0 0 0 0 0 0 0 0 0 0 0 0 0 0 0 0 0 0 0 0 0 0 0 0 0 0 0 0 0 0 0 0 0 0 0 0 0 0 0 0 0 0 0 0 0 0 0 0 0 0 0 0 0 0 0 0 0 0 0 0 0 0 0 0 0 0 0 0 0 0 0 0 0 0 0 0 0 0 0 0 0 0 0 0 0 0 0 0 0 0 0 0 0 0 0 0 0 0 0 0 0 0 0 0 0 0 0 0 0 0 0 0 0 0 0 0 0 0 0 0 0 0 0 0 0 0 0 0 0 0 0 0 0 0 0 0 0 0 0 0 0 0 0 0 0 0 0 0 0 0 0 0 0 0 0 0 0 0 0 0 0 0 0 0 0 0 0 0 0 0 0 0 0 0 0 0 0 0 0 0 0 0 0 0 0 0 0 0 0 0 0 0 0 0 0 0 0 0 0 0 0 0 0 0 0 0 0 0 0 0 0 0 0 0 0 0 0 0 0 0 0 0 0 0 0 0 0 0 0 0 0 0 0 0 0 0 0 0 0 0 0 0 0 0 0 0 0 0 0 0 0 0 0 0 0 0 0 0 0 0 0 0 0 0 0 0 0 0 0 0 0 0 0 0 0 0 0 0 0 0 0 0 0 0 0 0 0 0 0 0 0 0 0 0 0 0 0 0 0 0 0 0 0 0 0 0 0 0 0 0 0 0 0 0 0 0 0 0 0 0 0 0 0 0 0 0 0 0 0 0 0 0 0 0 0 0 0 0 0 0 0 ];
Traffic[0]class1Average hops = 1 (845357 samples)
traffic_manager/hop_stats_freq = [ 0 845357 0 0 0 0 0 0 0 0 0 0 0 0 0 0 0 0 0 0 ];
=======Traffic[1]class0 ======
Traffic[1]class0Overall average latency = 6.83133 (1 samples)
Traffic[1]class0Overall average accepted rate = 0.00499474 (1 samples)
Traffic[1]class0Overall min accepted rate = 0 (1 samples)
traffic_manager/latency_stat_0_freq = [ 0 10426 58 475 161 394139 8226 11222 343017 20514 6922 6724 15973 7049 13872 800 2895 686 689 473 285 274 211 53 76 24 48 28 14 3 2 9 4 1 1 2 1 0 0 0 0 0 0 0 0 0 0 0 0 0 0 0 0 0 0 0 0 0 0 0 0 0 0 0 0 0 0 0 0 0 0 0 0 0 0 0 0 0 0 0 0 0 0 0 0 0 0 0 0 0 0 0 0 0 0 0 0 0 0 0 0 0 0 0 0 0 0 0 0 0 0 0 0 0 0 0 0 0 0 0 0 0 0 0 0 0 0 0 0 0 0 0 0 0 0 0 0 0 0 0 0 0 0 0 0 0 0 0 0 0 0 0 0 0 0 0 0 0 0 0 0 0 0 0 0 0 0 0 0 0 0 0 0 0 0 0 0 0 0 0 0 0 0 0 0 0 0 0 0 0 0 0 0 0 0 0 0 0 0 0 0 0 0 0 0 0 0 0 0 0 0 0 0 0 0 0 0 0 0 0 0 0 0 0 0 0 0 0 0 0 0 0 0 0 0 0 0 0 0 0 0 0 0 0 0 0 0 0 0 0 0 0 0 0 0 0 0 0 0 0 0 0 0 0 0 0 0 0 0 0 0 0 0 0 0 0 0 0 0 0 0 0 0 0 0 0 0 0 0 0 0 0 0 0 0 0 0 0 0 0 0 0 0 0 0 0 0 0 0 0 0 0 0 0 0 0 0 0 0 0 0 0 0 0 0 0 0 0 0 0 0 0 0 0 0 0 0 0 0 0 0 0 0 0 0 0 0 0 0 0 0 0 0 0 0 0 0 0 0 0 0 0 0 0 0 0 0 0 0 0 0 0 0 0 0 0 0 0 0 0 0 0 0 0 0 0 0 0 0 0 0 0 0 0 0 0 0 0 0 0 0 0 0 0 0 0 0 0 0 0 0 0 0 0 0 0 0 0 0 0 0 0 0 0 0 0 0 0 0 0 0 0 0 0 0 0 0 0 0 0 0 0 0 0 0 0 0 0 0 0 0 0 0 0 0 0 0 0 0 0 0 0 0 0 0 0 0 0 0 0 0 0 0 0 0 0 0 0 0 0 0 0 0 0 0 0 0 0 0 0 0 0 0 0 0 0 0 0 0 0 0 0 0 0 0 0 0 0 0 0 0 0 0 0 0 0 0 0 0 0 0 0 0 0 0 0 0 0 0 0 0 0 0 0 0 0 0 0 0 0 0 0 0 0 0 0 0 0 0 0 0 0 0 0 0 0 0 0 0 0 0 0 0 0 0 0 0 0 0 0 0 0 0 0 0 0 0 0 0 0 0 0 0 0 0 0 0 0 0 0 0 0 0 0 0 0 0 0 0 0 0 0 0 0 0 0 0 0 0 0 0 0 0 0 0 0 0 0 0 0 0 0 0 0 0 0 0 0 0 0 0 0 0 0 0 0 0 0 0 0 0 0 0 0 0 0 0 0 0 0 0 0 0 0 0 0 0 0 0 0 0 0 0 0 0 0 0 0 0 0 0 0 0 0 0 0 0 0 0 0 0 0 0 0 0 0 0 0 0 0 0 0 0 0 0 0 0 0 0 0 0 0 0 0 0 0 0 0 0 0 0 0 0 0 0 0 0 0 0 0 0 0 0 0 0 0 0 0 0 0 0 0 0 0 0 0 0 0 0 0 0 0 0 0 0 0 0 0 0 0 0 0 0 0 0 0 0 0 0 0 0 0 0 0 0 0 0 0 0 0 0 0 0 0 0 0 0 0 0 0 0 0 0 0 0 0 0 0 0 0 0 0 0 0 0 0 0 0 0 0 0 0 0 0 0 0 0 0 0 0 0 0 0 0 0 0 0 0 0 0 0 0 0 0 0 0 0 0 0 0 0 0 0 0 0 0 0 0 0 0 0 0 0 0 0 0 0 0 0 0 0 0 0 0 0 0 0 0 0 0 0 0 0 0 0 0 0 0 0 0 0 0 0 0 0 0 0 0 0 0 0 0 0 0 0 0 0 0 0 0 0 0 0 0 0 0 0 0 0 0 0 0 0 0 0 0 0 0 0 0 0 0 0 0 0 0 0 0 0 0 0 0 0 0 0 0 0 0 0 0 0 0 0 0 0 0 0 0 0 0 0 0 0 0 0 0 0 0 0 0 0 0 0 0 0 0 0 0 0 0 0 0 0 0 0 0 0 0 0 0 0 0 0 0 0 0 0 0 0 0 0 0 0 0 0 0 0 0 0 0 0 0 0 0 0 0 0 0 0 0 ];
Traffic[1]class1Average hops = 1 (845357 samples)
traffic_manager/hop_stats_freq = [ 0 845357 0 0 0 0 0 0 0 0 0 0 0 0 0 0 0 0 0 0 ];
----------------------------END-of-Interconnect-DETAILS-------------------------

gpgpu_simulation_time = 0 days, 8 hrs, 44 min, 46 sec (31486 sec)
gpgpu_simulation_rate = 384721 (inst/sec)
gpgpu_simulation_rate = 578 (cycle/sec)
  computing plane 1
kernel '_Z29cuda_cutoff_potential_latticeiiP6float4fffPfi' transfer to GPU hardware scheduler
kernel_name = _Z29cuda_cutoff_potential_latticeiiP6float4fffPfi 
kernel_launch_uid = 2 
gpu_sim_cycle = 22228946
gpu_sim_insn = 14760151048
gpu_ipc =     664.0059
gpu_tot_sim_cycle = 40429271
gpu_tot_sim_insn = 26873499904
gpu_tot_ipc =     664.7040
gpu_tot_issued_cta = 0
gpu_stall_dramfull = 34282
gpu_stall_icnt2sh    = 92340
gpu_total_sim_rate=424541
Cache L1D_000:	Size = 16384 B (32 Set x 4-way x 128 byte line)
		Access = 259290, Miss = 122416 (0.472), PendingHit = 247 (0.000953)
Cache L1D_001:	Size = 16384 B (32 Set x 4-way x 128 byte line)
		Access = 257950, Miss = 119774 (0.464), PendingHit = 328 (0.00127)
Cache L1D_002:	Size = 16384 B (32 Set x 4-way x 128 byte line)
		Access = 257950, Miss = 120835 (0.468), PendingHit = 194 (0.000752)
Cache L1D_003:	Size = 16384 B (32 Set x 4-way x 128 byte line)
		Access = 257950, Miss = 117064 (0.454), PendingHit = 919 (0.00356)
Cache L1D_004:	Size = 16384 B (32 Set x 4-way x 128 byte line)
		Access = 258620, Miss = 120078 (0.464), PendingHit = 539 (0.00208)
Cache L1D_005:	Size = 16384 B (32 Set x 4-way x 128 byte line)
		Access = 258620, Miss = 114965 (0.445), PendingHit = 663 (0.00256)
Cache L1D_006:	Size = 16384 B (32 Set x 4-way x 128 byte line)
		Access = 259960, Miss = 120108 (0.462), PendingHit = 1181 (0.00454)
Cache L1D_007:	Size = 16384 B (32 Set x 4-way x 128 byte line)
		Access = 258620, Miss = 119411 (0.462), PendingHit = 198 (0.000766)
Cache L1D_008:	Size = 16384 B (32 Set x 4-way x 128 byte line)
		Access = 257280, Miss = 120205 (0.467), PendingHit = 381 (0.00148)
Cache L1D_009:	Size = 16384 B (32 Set x 4-way x 128 byte line)
		Access = 259960, Miss = 120255 (0.463), PendingHit = 589 (0.00227)
Cache L1D_010:	Size = 16384 B (32 Set x 4-way x 128 byte line)
		Access = 257950, Miss = 121427 (0.471), PendingHit = 391 (0.00152)
Cache L1D_011:	Size = 16384 B (32 Set x 4-way x 128 byte line)
		Access = 259960, Miss = 118844 (0.457), PendingHit = 711 (0.00274)
Cache L1D_012:	Size = 16384 B (32 Set x 4-way x 128 byte line)
		Access = 259960, Miss = 116258 (0.447), PendingHit = 772 (0.00297)
Cache L1D_013:	Size = 16384 B (32 Set x 4-way x 128 byte line)
		Access = 259290, Miss = 123836 (0.478), PendingHit = 337 (0.0013)
total_dl1_misses=1675476
total_dl1_accesses=3623360
total_dl1_miss_rate= 0.462409
Shader 0 dynamic_warp_id issue ditsribution:
dynamic_warp_id:
0, 1, 2, 3, 4, 5, 6, 7, 8, 9, 10, 11, 12, 13, 14, 15, 16, 17, 18, 19, 20, 21, 22, 23, 24, 25, 26, 27, 28, 29, 30, 31, 32, 33, 34, 35, 36, 37, 38, 39, 40, 41, 42, 43, 44, 45, 46, 47, 48, 49, 50, 51, 52, 53, 54, 55, 56, 57, 58, 59, 60, 61, 62, 63, 64, 65, 66, 67, 68, 69, 70, 71, 72, 73, 74, 75, 76, 77, 78, 79, 80, 81, 82, 83, 84, 85, 86, 87, 88, 89, 90, 91, 92, 93, 94, 95, 96, 97, 98, 99, 100, 101, 102, 103, 104, 105, 106, 107, 108, 109, 110, 111, 112, 113, 114, 115, 116, 117, 118, 119, 120, 121, 122, 123, 124, 125, 126, 127, 128, 129, 130, 131, 132, 133, 134, 135, 136, 137, 138, 139, 140, 141, 142, 143, 144, 145, 146, 147, 148, 149, 150, 151, 152, 153, 154, 155, 156, 157, 158, 159, 160, 161, 162, 163, 164, 165, 166, 167, 168, 169, 170, 171, 172, 173, 174, 175, 176, 177, 178, 179, 180, 181, 182, 183, 184, 185, 186, 187, 188, 189, 190, 191, 192, 193, 194, 195, 196, 197, 198, 199, 200, 201, 202, 203, 204, 205, 206, 207, 208, 209, 210, 211, 212, 213, 214, 215, 216, 217, 218, 219, 220, 221, 222, 223, 224, 225, 226, 227, 228, 229, 230, 231, 232, 233, 234, 235, 236, 237, 238, 239, 240, 241, 242, 243, 244, 245, 246, 247, 248, 249, 250, 251, 252, 253, 254, 255, 256, 257, 258, 259, 260, 261, 262, 263, 264, 265, 266, 267, 268, 269, 270, 271, 272, 273, 274, 275, 276, 277, 278, 279, 280, 281, 282, 283, 284, 285, 286, 287, 288, 289, 290, 291, 292, 293, 294, 295, 296, 297, 298, 299, 300, 301, 302, 303, 304, 305, 306, 307, 308, 309, 310, 311, 312, 313, 314, 315, 316, 317, 318, 319, 320, 321, 322, 323, 324, 325, 326, 327, 328, 329, 330, 331, 332, 333, 334, 335, 336, 337, 338, 339, 340, 341, 342, 343, 344, 345, 346, 347, 348, 349, 350, 351, 352, 353, 354, 355, 356, 357, 358, 359, 360, 361, 362, 363, 364, 365, 366, 367, 368, 369, 370, 371, 372, 373, 374, 375, 376, 377, 378, 379, 380, 381, 382, 383, 384, 385, 386, 387, 388, 389, 390, 391, 392, 393, 394, 395, 396, 397, 398, 399, 400, 401, 402, 403, 404, 405, 406, 407, 408, 409, 410, 411, 412, 413, 414, 415, 416, 417, 418, 419, 420, 421, 422, 423, 424, 425, 426, 427, 428, 429, 430, 431, 432, 433, 434, 435, 436, 437, 438, 439, 440, 441, 442, 443, 444, 445, 446, 447, 448, 449, 450, 451, 452, 453, 454, 455, 456, 457, 458, 459, 460, 461, 462, 463, 464, 465, 466, 467, 468, 469, 470, 471, 472, 473, 474, 475, 476, 477, 478, 479, 480, 481, 482, 483, 484, 485, 486, 487, 488, 489, 490, 491, 492, 493, 494, 495, 496, 497, 498, 499, 500, 501, 502, 503, 504, 505, 506, 507, 508, 509, 510, 511, 512, 513, 514, 515, 516, 517, 518, 519, 520, 521, 522, 523, 524, 525, 526, 527, 528, 529, 530, 531, 532, 533, 534, 535, 536, 537, 538, 539, 540, 541, 542, 543, 544, 545, 546, 547, 548, 549, 550, 551, 552, 553, 554, 555, 556, 557, 558, 559, 560, 561, 562, 563, 564, 565, 566, 567, 568, 569, 570, 571, 572, 573, 574, 575, 576, 577, 578, 579, 580, 581, 582, 583, 584, 585, 586, 587, 588, 589, 590, 591, 592, 593, 594, 595, 596, 597, 598, 599, 600, 601, 602, 603, 604, 605, 606, 607, 608, 609, 610, 611, 612, 613, 614, 615, 616, 617, 618, 619, 620, 621, 622, 623, 624, 625, 626, 627, 628, 629, 630, 631, 632, 633, 634, 635, 636, 637, 638, 639, 640, 641, 642, 643, 644, 645, 646, 647, 648, 649, 650, 651, 652, 653, 654, 655, 656, 657, 658, 659, 660, 661, 662, 663, 664, 665, 666, 667, 668, 669, 670, 671, 672, 673, 674, 675, 676, 677, 678, 679, 680, 681, 682, 683, 684, 685, 686, 687, 688, 689, 690, 691, 692, 693, 694, 695, 696, 697, 698, 699, 700, 701, 702, 703, 704, 705, 706, 707, 708, 709, 710, 711, 712, 713, 714, 715, 716, 717, 718, 719, 720, 721, 722, 723, 724, 725, 726, 727, 728, 729, 730, 731, 732, 733, 734, 735, 736, 737, 738, 739, 740, 741, 742, 743, 744, 745, 746, 747, 748, 749, 750, 751, 752, 753, 754, 755, 756, 757, 758, 759, 760, 761, 762, 763, 764, 765, 766, 767, 768, 769, 770, 771, 772, 773, 774, 775, 776, 777, 778, 779, 780, 781, 782, 783, 784, 785, 786, 787, 788, 789, 790, 791, 792, 793, 794, 795, 796, 797, 798, 799, 800, 801, 802, 803, 804, 805, 806, 807, 808, 809, 810, 811, 812, 813, 814, 815, 816, 817, 818, 819, 820, 821, 822, 823, 824, 825, 826, 827, 828, 829, 830, 831, 832, 833, 834, 835, 836, 837, 838, 839, 840, 841, 842, 843, 844, 845, 846, 847, 848, 849, 850, 851, 852, 853, 854, 855, 856, 857, 858, 859, 860, 861, 862, 863, 864, 865, 866, 867, 868, 869, 870, 871, 872, 873, 874, 875, 876, 877, 878, 879, 880, 881, 882, 883, 884, 885, 886, 887, 888, 889, 890, 891, 892, 893, 894, 895, 896, 897, 898, 899, 900, 901, 902, 903, 904, 905, 906, 907, 908, 909, 910, 911, 912, 913, 914, 915, 916, 917, 918, 919, 920, 921, 922, 923, 924, 925, 926, 927, 928, 929, 930, 931, 932, 933, 934, 935, 936, 937, 938, 939, 940, 941, 942, 943, 944, 945, 946, 947, 948, 949, 950, 951, 952, 953, 954, 955, 956, 957, 958, 959, 960, 961, 962, 963, 964, 965, 966, 967, 968, 969, 970, 971, 972, 973, 974, 975, 976, 977, 978, 979, 980, 981, 982, 983, 984, 985, 986, 987, 988, 989, 990, 991, 992, 993, 994, 995, 996, 997, 998, 999, 1000, 1001, 1002, 1003, 1004, 1005, 1006, 1007, 1008, 1009, 1010, 1011, 1012, 1013, 1014, 1015, 1016, 1017, 1018, 1019, 1020, 1021, 1022, 1023, 1024, 1025, 1026, 1027, 1028, 1029, 1030, 1031, 1032, 1033, 1034, 1035, 1036, 1037, 1038, 1039, 1040, 1041, 1042, 1043, 1044, 1045, 1046, 1047, 1048, 1049, 1050, 1051, 1052, 1053, 1054, 1055, 1056, 1057, 1058, 1059, 1060, 1061, 1062, 1063, 1064, 1065, 1066, 1067, 1068, 1069, 1070, 1071, 1072, 1073, 1074, 1075, 1076, 1077, 1078, 1079, 1080, 1081, 1082, 1083, 1084, 1085, 1086, 1087, 1088, 1089, 1090, 1091, 1092, 1093, 1094, 1095, 1096, 1097, 1098, 1099, 1100, 1101, 1102, 1103, 1104, 1105, 1106, 1107, 1108, 1109, 1110, 1111, 1112, 1113, 1114, 1115, 1116, 1117, 1118, 1119, 1120, 1121, 1122, 1123, 1124, 1125, 1126, 1127, 1128, 1129, 1130, 1131, 1132, 1133, 1134, 1135, 1136, 1137, 1138, 1139, 1140, 1141, 1142, 1143, 1144, 1145, 1146, 1147, 1148, 1149, 1150, 1151, 1152, 1153, 1154, 1155, 1156, 1157, 1158, 1159, 1160, 1161, 1162, 1163, 1164, 1165, 1166, 1167, 1168, 1169, 1170, 1171, 1172, 1173, 1174, 1175, 1176, 1177, 1178, 1179, 1180, 1181, 1182, 1183, 1184, 1185, 1186, 1187, 1188, 1189, 1190, 1191, 1192, 1193, 1194, 1195, 1196, 1197, 1198, 1199, 1200, 1201, 1202, 1203, 1204, 1205, 1206, 1207, 1208, 1209, 1210, 1211, 1212, 1213, 1214, 1215, 1216, 1217, 1218, 1219, 1220, 1221, 1222, 1223, 1224, 1225, 1226, 1227, 1228, 1229, 1230, 1231, 1232, 1233, 1234, 1235, 1236, 1237, 1238, 1239, 1240, 1241, 1242, 1243, 1244, 1245, 1246, 1247, 1248, 1249, 1250, 1251, 1252, 1253, 1254, 1255, 1256, 1257, 1258, 1259, 1260, 1261, 1262, 1263, 1264, 1265, 1266, 1267, 1268, 1269, 1270, 1271, 1272, 1273, 1274, 1275, 1276, 1277, 1278, 1279, 1280, 1281, 1282, 1283, 1284, 1285, 1286, 1287, 1288, 1289, 1290, 1291, 1292, 1293, 1294, 1295, 1296, 1297, 1298, 1299, 1300, 1301, 1302, 1303, 1304, 1305, 1306, 1307, 1308, 1309, 1310, 1311, 1312, 1313, 1314, 1315, 1316, 1317, 1318, 1319, 1320, 1321, 1322, 1323, 1324, 1325, 1326, 1327, 1328, 1329, 1330, 1331, 1332, 1333, 1334, 1335, 1336, 1337, 1338, 1339, 1340, 1341, 1342, 1343, 1344, 1345, 1346, 1347, 1348, 1349, 1350, 1351, 1352, 1353, 1354, 1355, 1356, 1357, 1358, 1359, 1360, 1361, 1362, 1363, 1364, 1365, 1366, 1367, 1368, 1369, 1370, 1371, 1372, 1373, 1374, 1375, 1376, 1377, 1378, 1379, 1380, 1381, 1382, 1383, 1384, 1385, 1386, 1387, 1388, 1389, 1390, 1391, 1392, 1393, 1394, 1395, 1396, 1397, 1398, 1399, 1400, 1401, 1402, 1403, 1404, 1405, 1406, 1407, 1408, 1409, 1410, 1411, 1412, 1413, 1414, 1415, 1416, 1417, 1418, 1419, 1420, 1421, 1422, 1423, 1424, 1425, 1426, 1427, 1428, 1429, 1430, 1431, 1432, 1433, 1434, 1435, 1436, 1437, 1438, 1439, 1440, 1441, 1442, 1443, 1444, 1445, 1446, 1447, 1448, 1449, 1450, 1451, 1452, 1453, 1454, 1455, 1456, 1457, 1458, 1459, 1460, 1461, 1462, 1463, 1464, 1465, 1466, 1467, 1468, 1469, 1470, 1471, 1472, 1473, 1474, 1475, 1476, 1477, 1478, 1479, 1480, 1481, 1482, 1483, 1484, 1485, 1486, 1487, 1488, 1489, 1490, 1491, 1492, 1493, 1494, 1495, 1496, 1497, 1498, 1499, 1500, 1501, 1502, 1503, 1504, 1505, 1506, 1507, 1508, 1509, 1510, 1511, 1512, 1513, 1514, 1515, 1516, 1517, 1518, 1519, 1520, 1521, 1522, 1523, 1524, 1525, 1526, 1527, 1528, 1529, 1530, 1531, 1532, 1533, 1534, 1535, 1536, 1537, 1538, 1539, 1540, 1541, 1542, 1543, 1544, 1545, 1546, 1547, 
distro:
26494, 27007, 26647, 27232, 27377, 27926, 27521, 28133, 26045, 26432, 26108, 26594, 26588, 27182, 26687, 27281, 26951, 27428, 27104, 27581, 27349, 27997, 27475, 28069, 15458, 15674, 15512, 15755, 24832, 25057, 24922, 25201, 31901, 32243, 32072, 32423, 32558, 32990, 32711, 33170, 31679, 32093, 31868, 32336, 32532, 32982, 32694, 33090, 32303, 32762, 32456, 32879, 28921, 29281, 29101, 29470, 23404, 23584, 23530, 23719, 27754, 28006, 27907, 28105, 37174, 37480, 37426, 37777, 37298, 37595, 37442, 37955, 37754, 38141, 37880, 38375, 37518, 37842, 37725, 38040, 36031, 36265, 36274, 36499, 32717, 32924, 32879, 33158, 37585, 37531, 37738, 37729, 42257, 42239, 42464, 42437, 42647, 42710, 42935, 43007, 42178, 42232, 42358, 42394, 41531, 41540, 41756, 41720, 41683, 41692, 41818, 41881, 33107, 33089, 33251, 33341, 26336, 26291, 26462, 26426, 36876, 36876, 37092, 37029, 44404, 44395, 44674, 44647, 42709, 42772, 42907, 42970, 43829, 43910, 44144, 44081, 42260, 42404, 42512, 42656, 41698, 41707, 41932, 41959, 32850, 32742, 33039, 32922, 42782, 42863, 43106, 43133, 43313, 43349, 43547, 43646, 43137, 43209, 43425, 43443, 44520, 44709, 44799, 44880, 43336, 43408, 43606, 43633, 43821, 43830, 44064, 44064, 22560, 22578, 22668, 22704, 26446, 26518, 26608, 26644, 42154, 42136, 42406, 42487, 43427, 43400, 43661, 43562, 43279, 43216, 43432, 43549, 44880, 44682, 45159, 44916, 43537, 43420, 43789, 43690, 42389, 42362, 42515, 42632, 28235, 28343, 28370, 28487, 37280, 37415, 37478, 37595, 43162, 43225, 43549, 43504, 42981, 43053, 43224, 43278, 44649, 44514, 44910, 44685, 42585, 42558, 42774, 42765, 42162, 42198, 42306, 42468, 33836, 33854, 34052, 34034, 22664, 22718, 22790, 22853, 43573, 43474, 43744, 43690, 43907, 43871, 44123, 44150, 42999, 42981, 43251, 43206, 42703, 42667, 42874, 42946, 42854, 42755, 43097, 43007, 43014, 42996, 43239, 43311, 22656, 22656, 22827, 22791, 32304, 32331, 32493, 32529, 43009, 42955, 43243, 43117, 44352, 44262, 44568, 44514, 44358, 44313, 44619, 44565, 42872, 42800, 43187, 43106, 43785, 43884, 44019, 44118, 39880, 39844, 40087, 40132, 28241, 28250, 28403, 28403, 42788, 42779, 43031, 43067, 42288, 42171, 42531, 42432, 43134, 43206, 43395, 43431, 42425, 42470, 42776, 42686, 43908, 43827, 44115, 44061, 44185, 44239, 44464, 44401, 28195, 28339, 28339, 28492, 43051, 43096, 43339, 43321, 44228, 44309, 44489, 44516, 42914, 42941, 43229, 43193, 42263, 42218, 42479, 42479, 43596, 43506, 43848, 43767, 42543, 42579, 42849, 42858, 28373, 28256, 28517, 28454, 26811, 26784, 26910, 26919, 42359, 42458, 42638, 42719, 42956, 42929, 43235, 43190, 43158, 43095, 43401, 43302, 42566, 42386, 42791, 42683, 43207, 43234, 43522, 43495, 42232, 42295, 42529, 42565, 22532, 22469, 22604, 22577, 43602, 43674, 43899, 43890, 43434, 43434, 43650, 43722, 42649, 42649, 42883, 42892, 42137, 42200, 42497, 42479, 43748, 43631, 43928, 43964, 43897, 43987, 44194, 44266, 22566, 22647, 22746, 22728, 27592, 27637, 27754, 27781, 43628, 43610, 43853, 43907, 44142, 44061, 44340, 44295, 43196, 43124, 43430, 43286, 41815, 41851, 42103, 42004, 44316, 44325, 44559, 44487, 43669, 43507, 43930, 43813, 28348, 28411, 28510, 28492, 39204, 39222, 39312, 39483, 43031, 43067, 43238, 43229, 43563, 43374, 43734, 43590, 41348, 41447, 41681, 41672, 43386, 43368, 43593, 43638, 44253, 44154, 44505, 44451, 34392, 34446, 34500, 34626, 28333, 28315, 28513, 28450, 42613, 42721, 42919, 42955, 41745, 41700, 41997, 41943, 42188, 42251, 42467, 42494, 43265, 43382, 43598, 43661, 44175, 44157, 44490, 44427, 43605, 43623, 43866, 43830, 27282, 27165, 27399, 27345, 43493, 43286, 43673, 43637, 43592, 43475, 43844, 43736, 42405, 42207, 42684, 42477, 43311, 43383, 43527, 43572, 42698, 42716, 42995, 42896, 41691, 41682, 41916, 41970, 26626, 26563, 26752, 26689, 32055, 32046, 32244, 32226, 43110, 43092, 43362, 43353, 42798, 42780, 43023, 43041, 43609, 43645, 43852, 43879, 42599, 42527, 42824, 42734, 41634, 41580, 41859, 41877, 38738, 38738, 38963, 39008, 27124, 27205, 27250, 27358, 42388, 42451, 42676, 42676, 42339, 42276, 42627, 42582, 42464, 42392, 42725, 42608, 44051, 44042, 44258, 44321, 43007, 42809, 43232, 43043, 42176, 42158, 42401, 42383, 26485, 26494, 26656, 26665, 37013, 37004, 37256, 37292, 43490, 43571, 43661, 43751, 43151, 43169, 43349, 43412, 43807, 43888, 44077, 44176, 43695, 43740, 43983, 43920, 41853, 41925, 42123, 42195, 32999, 33026, 33215, 33224, 31774, 31756, 32008, 31963, 41892, 41937, 42189, 42126, 42869, 42932, 43121, 43175, 43851, 43914, 44058, 44112, 43062, 43044, 43431, 43269, 44300, 44444, 44570, 44642, 37864, 37999, 38116, 38179, 22460, 22505, 22622, 22685, 38523, 38388, 38811, 38748, 38914, 38734, 39175, 39031, 38556, 38439, 38799, 38700, 40287, 40062, 40584, 40287, 39045, 38874, 39315, 39126, 39504, 39378, 39873, 39639, 20719, 20692, 20827, 20773, 25815, 25572, 25968, 25743, 26436, 26238, 26589, 26355, 34023, 33744, 34149, 33870, 35709, 35268, 35889, 35421, 35070, 34728, 35259, 34998, 35248, 34870, 35437, 34987, 31111, 30688, 31363, 30787, 31534, 30985, 31714, 31255, 26101, 25579, 26155, 25696, 28713, 28326, 28893, 28488, 28990, 28522, 29161, 28693, 29285, 28754, 29411, 28898, 29703, 29154, 29883, 29262, 28789, 28285, 29041, 28510, 23611, 23134, 23773, 23242, 21021, 20652, 21093, 20742, 23474, 23114, 23600, 23150, 23809, 23278, 23953, 23350, 24188, 23648, 24350, 23738, 23908, 23368, 24034, 23449, 22922, 22517, 23093, 22625, 18925, 18538, 19051, 18628, 14484, 14250, 14502, 14277, 21003, 21354, 21075, 21417, 31789, 32518, 31897, 32662, 31640, 32279, 31784, 32477, 31251, 31989, 31305, 32115, 32016, 32655, 32097, 32781, 32242, 33016, 32350, 33142, 31249, 31816, 31366, 31888, 24736, 25141, 24817, 25195, 34247, 34832, 34373, 35003, 38633, 39209, 38768, 39290, 38373, 39012, 38499, 39192, 38497, 39190, 38632, 39334, 38549, 39017, 38684, 39206, 38325, 38766, 38442, 38973, 30621, 31125, 30666, 31206, 34101, 34407, 34218, 34533, 46318, 46966, 46525, 47146, 46396, 46927, 46567, 47053, 45699, 46059, 45852, 46248, 45875, 46379, 46046, 46532, 45873, 46431, 46116, 46620, 40465, 41059, 40645, 41194, 45111, 45237, 45381, 45408, 51635, 51599, 51779, 51824, 51618, 51708, 51771, 51888, 51471, 51570, 51615, 51777, 52847, 53153, 53018, 53180, 52298, 52190, 52460, 52370, 39319, 39436, 39571, 39643, 32392, 32446, 32536, 32581, 51803, 51740, 52037, 52010, 54239, 54167, 54356, 54329, 52913, 52877, 53165, 53111, 53958, 54048, 54183, 54129, 52010, 52100, 52289, 52298, 52762, 52771, 52987, 52969, 34396, 34252, 34495, 34369, 51705, 51768, 51966, 52020, 53800, 53737, 54007, 53962, 54448, 54430, 54583, 54610, 54049, 53950, 54229, 54094, 52889, 52925, 53105, 53231, 53808, 53799, 53934, 54033, 33822, 33786, 34002, 33903, 31906, 31879, 32032, 32041, 54719, 54809, 54971, 55007, 53530, 53467, 53791, 53674, 54021, 54165, 54246, 54381, 53939, 53786, 54110, 53993, 53519, 53519, 53699, 53753, 52540, 52630, 52765, 52774, 38768, 38651, 38894, 38849, 52738, 52702, 52900, 52918, 53466, 53502, 53691, 53700, 54117, 54180, 54306, 54378, 54161, 54044, 54341, 54251, 54146, 54083, 54317, 54272, 47047, 47029, 47272, 47245, 27189, 27180, 27279, 27288, 32125, 31972, 32260, 32035, 54033, 54087, 54312, 54240, 53862, 54159, 54105, 54357, 54108, 54054, 54279, 54144, 54478, 54433, 54703, 54622, 52550, 52613, 52784, 52802, 53678, 53687, 53867, 53948, 40127, 40172, 40253, 40298, 46251, 46305, 46449, 46530, 53658, 53613, 53838, 53847, 52900, 52918, 53080, 53134, 53368, 53422, 53539, 53566, 53866, 53785, 54100, 54046, 48852, 48933, 49104, 49095, 41039, 41084, 41246, 41318, 33007, 33052, 33151, 33115, 53022, 53076, 53283, 53301, 54354, 54228, 54606, 54363, 53303, 53312, 53582, 53510, 53139, 53184, 53364, 53400, 53199, 53181, 53469, 53424, 54335, 54335, 54506, 54506, 47206, 47242, 47404, 47386, 53072, 53090, 53297, 53324, 53881, 53854, 54106, 54106, 52303, 52168, 52609, 52402, 53184, 52932, 53364, 53256, 54227, 54218, 54362, 54434, 41799, 41790, 41925, 41979, 26974, 26956, 27055, 27028, 39635, 39707, 39788, 39905, 54456, 54582, 54654, 54753, 53337, 53319, 53616, 53526, 51206, 51080, 51422, 51350, 53141, 53177, 53330, 53411, 53730, 53721, 53865, 53883, 47669, 47669, 47867, 47903, 39856, 39748, 40000, 39955, 53223, 53124, 53493, 53358, 54283, 54319, 54517, 54553, 53438, 53267, 53627, 53447, 52959, 52896, 53166, 53058, 53305, 53395, 53575, 53575, 48211, 48256, 48427, 48418, 33105, 33105, 33249, 33168, 46653, 46707, 46851, 46878, 52179, 52152, 52395, 52323, 52604, 52550, 52883, 52811, 52186, 52096, 52384, 52339, 53841, 53859, 54084, 54003, 52992, 52857, 53181, 53028, 40849, 40804, 41074, 41020, 52302, 52302, 52572, 52491, 53765, 53882, 54008, 54089, 53431, 53539, 53656, 53782, 51823, 51796, 52102, 51958, 52629, 52611, 52863, 52935, 53807, 53879, 54005, 54131, 33796, 33760, 34012, 34039, 33561, 33552, 33714, 33678, 46630, 46495, 46819, 46747, 52961, 52835, 53222, 53042, 51943, 51916, 52150, 52141, 52607, 52517, 52751, 52670, 54166, 54229, 54427, 54445, 52996, 52798, 53158, 53041, 40872, 40827, 41034, 41043, 51806, 51752, 51977, 51959, 52550, 52460, 52721, 52640, 52220, 52283, 52391, 52526, 51976, 51877, 52156, 52138, 53051, 52970, 53258, 53195, 53323, 53179, 53521, 53368, 33755, 33755, 33908, 33845, 32867, 32885, 33011, 33011, 52136, 52100, 52262, 52262, 52746, 52782, 52908, 52980, 52864, 52945, 53053, 53134, 53834, 53816, 54068, 53987, 52445, 52337, 52715, 52499, 52841, 52823, 53030, 53012, 26955, 27009, 27045, 27072, 52054, 52027, 52261, 52270, 52950, 52977, 53184, 53211, 53663, 53762, 53960, 53996, 53998, 54070, 54205, 54277, 54582, 54438, 54762, 54690, 53712, 53604, 53838, 53874, 26704, 26731, 26812, 26821, 39482, 39383, 39626, 39608, 46714, 46669, 46912, 46804, 54283, 54202, 54454, 54490, 53143, 53152, 53395, 53422, 53313, 53142, 53457, 53457, 54380, 54317, 54605, 54524, 48017, 47927, 48233, 48206, 41673, 41745, 41808, 41826, 45117, 45198, 45333, 45423, 53297, 53477, 53558, 53639, 54129, 54120, 54318, 54372, 54317, 54281, 54515, 54479, 54396, 54414, 54567, 54603, 52996, 53059, 53176, 53266, 40441, 40585, 40603, 40756, 40683, 40593, 40917, 40755, 48685, 48289, 48838, 48487, 49303, 48898, 49519, 49132, 49583, 49358, 49700, 49502, 49190, 49037, 49478, 49235, 48856, 48451, 49027, 48685, 36764, 36521, 36908, 36764, 25366, 25132, 25438, 25159, 42158, 41546, 42257, 41654, 43018, 42352, 43126, 42469, 41766, 41298, 41919, 41424, 42905, 42293, 43058, 42473, 42491, 41843, 42725, 41978, 41731, 41236, 41938, 41434, 22787, 22346, 22823, 22373, 34417, 33697, 34696, 33850, 34768, 33949, 34930, 34021, 34899, 34341, 35052, 34467, 35060, 34376, 35231, 34502, 35357, 34628, 35501, 34799, 34767, 34200, 34965, 34344, 23631, 23298, 23703, 23415, 23802, 23460, 23865, 23487, 27985, 27175, 28039, 27265, 28203, 27483, 28275, 27609, 28356, 27708, 28446, 27798, 28168, 27601, 28357, 27646, 27870, 27114, 27987, 27231, 28239, 27456, 28437, 27492, 19447, 18979, 19519, 19060, 
gpgpu_n_tot_thrd_icount = 28723572160
gpgpu_n_tot_w_icount = 897611630
gpgpu_n_icache_hits = 487237860
gpgpu_n_icache_misses = 2015
gpgpu_n_l1dcache_read_hits = 1940434
gpgpu_n_l1dcache_read_misses = 1682926
gpgpu_n_l1dcache_write_accesses = 21632
gpgpu_n_l1dcache_wirte_misses = 21632
gpgpu_n_tcache_hits = 0
gpgpu_n_tcache_misses = 0
gpgpu_n_ccache_hits = 40998862
gpgpu_n_ccache_misses = 3488
gpgpu_n_stall_shd_mem = 4180426
gpgpu_n_mem_read_local = 0
gpgpu_n_mem_write_local = 0
gpgpu_n_mem_read_global = 1675476
gpgpu_n_mem_write_global = 21632
gpgpu_n_mem_texture = 0
gpgpu_n_mem_const = 924
gpgpu_n_load_insn  = 115947520
gpgpu_n_store_insn = 1384448
gpgpu_n_shmem_insn = -159355968
gpgpu_n_tex_insn = 0
gpgpu_n_const_mem_insn = 175305728
gpgpu_n_param_mem_insn = -2053555264
gpgpu_n_shmem_bkconflict = 0
gpgpu_n_cache_bkconflict = 0
gpgpu_n_intrawarp_mshr_merge = 0
gpgpu_n_cmem_portconflict = 567840
gpgpu_stall_shd_mem[c_mem][bk_conf] = 567840
gpgpu_stall_shd_mem[c_mem][mshr_rc] = 0
gpgpu_stall_shd_mem[c_mem][icnt_rc] = 0
gpgpu_stall_shd_mem[t_mem][mshr_rc] = 0
gpgpu_stall_shd_mem[t_mem][icnt_rc] = 0
gpgpu_stall_shd_mem[s_mem][bk_conf] = 1806272
gpgpu_stall_shd_mem[gl_mem][bk_conf] = 0
gpgpu_stall_shd_mem[gl_mem][coal_stall] = 1806314
gpgpu_stall_shd_mem[g_mem_ld][mshr_rc] = 0
gpgpu_stall_shd_mem[g_mem_ld][icnt_rc] = 0
gpgpu_stall_shd_mem[g_mem_ld][wb_icnt_rc] = 0
gpgpu_stall_shd_mem[g_mem_ld][wb_rsrv_fail] = 0
gpgpu_stall_shd_mem[g_mem_st][mshr_rc] = 0
gpgpu_stall_shd_mem[g_mem_st][icnt_rc] = 0
gpgpu_stall_shd_mem[g_mem_st][wb_icnt_rc] = 0
gpgpu_stall_shd_mem[g_mem_st][wb_rsrv_fail] = 0
gpgpu_stall_shd_mem[l_mem_ld][mshr_rc] = 0
gpgpu_stall_shd_mem[l_mem_ld][icnt_rc] = 0
gpgpu_stall_shd_mem[l_mem_ld][wb_icnt_rc] = 0
gpgpu_stall_shd_mem[l_mem_ld][wb_rsrv_fail] = 0
gpgpu_stall_shd_mem[l_mem_st][mshr_rc] = 0
gpgpu_stall_shd_mem[l_mem_st][icnt_rc] = 0
gpgpu_stall_shd_mem[l_mem_ld][wb_icnt_rc] = 0
gpgpu_stall_shd_mem[l_mem_ld][wb_rsrv_fail] = 0
gpu_reg_bank_conflict_stalls = 0
Warp Occupancy Distribution:
Stall:27183140	W0_Idle:179943	W0_Scoreboard:205086167	W1:2739969	W2:1854549	W3:2044566	W4:1984113	W5:1268649	W6:1913121	W7:1053396	W8:1998522	W9:1108584	W10:1375506	W11:1064574	W12:1645200	W13:1041615	W14:1547163	W15:1045179	W16:1922152	W17:946719	W18:1370475	W19:944073	W20:1519083	W21:1011402	W22:1481094	W23:965808	W24:1666557	W25:974601	W26:1374714	W27:874305	W28:1767222	W29:1405089	W30:1393398	W31:2522763	W32:851787469
maxmrqlatency = 133 
maxdqlatency = 0 
maxmflatency = 530 
averagemflatency = 71 
max_icnt2mem_latency = 283 
max_icnt2sh_latency = 40429270 
mrq_lat_table:18106 	6173 	10130 	1923 	9871 	10701 	727 	1 	0 	0 	0 	0 	0 	0 	0 	0 	0 	0 	0 	0 	0 	0 	0 	0 	0 	0 	0 	0 	0 	0 	0 	0 	
dq_lat_table:0 	0 	0 	0 	0 	0 	0 	0 	0 	0 	0 	0 	0 	0 	0 	0 	0 	0 	0 	0 	0 	0 	0 	0 	0 	0 	0 	0 	0 	0 	0 	0 	
mf_lat_table:0 	0 	0 	0 	0 	0 	1653359 	42590 	2079 	4 	0 	0 	0 	0 	0 	0 	0 	0 	0 	0 	0 	0 	0 	0 	0 	0 	0 	0 	0 	0 	0 	0 	
icnt2mem_lat_table:142 	1672348 	23171 	311 	455 	543 	813 	351 	80 	0 	0 	0 	0 	0 	0 	0 	0 	0 	0 	0 	0 	0 	0 	0 	
icnt2sh_lat_table:0 	809075 	854069 	13227 	29 	0 	0 	0 	0 	0 	0 	0 	0 	0 	0 	0 	0 	168 	168 	364 	656 	1172 	2340 	4728 	
mf_lat_pw_table:8396 	3640 	0 	0 	0 	0 	70204 	854 	5 	0 	0 	0 	0 	0 	0 	0 	0 	0 	0 	0 	0 	0 	0 	0 	0 	0 	0 	0 	0 	0 	0 	0 	
maximum concurrent accesses to same row:
dram[0]:        64        64        64        64        64        64        64        64        64        64        64        64        64        64        64        64 
dram[1]:        64        64        64        64        64        64        64        64        64        64        64        64        64        64        64        64 
dram[2]:        64        64        64        64        64        64        64        64        64        64        64        64        64        64        64        64 
dram[3]:        64        64        64        64        64        64        64        64        64        64        64        64        64        64        64        64 
dram[4]:        64        64        64        64        64        64        64        64        64        64        64        64        64        64        64        64 
maximum service time to same row:
dram[0]:   5749150   5469592   5829519   5533513   5735646   5175814   5646256   5572673   5609832   5604087   5418872   5663783   5466227   5550475   5170614   5700196 
dram[1]:   5749139   5469586   5829525   5533375   5735632   5141053   5646256   5572680   5609834   5604092   5418873   5663792   5456984   5550468   5059420   5700203 
dram[2]:   5746483   5472151   5827569   5522099   5734614   5298084   5645480   5579604   5609321   5617579   5394708   5664635   5456994   5548099   5028351   5682243 
dram[3]:   5746482   5472149   5827574   5539802   5745680   5186873   5645467   5579604   5609152   5617573   5394703   5664635   5454165   5548097   5325948   5682240 
dram[4]:   5732791   5446885   5831693   5615703   5752559   5310534   5445220   5585304   5603821   5609279   5389738   5707588   5577673   5553852   5297124   5612650 
average row accesses per activate:
dram[0]:  8.617977  8.481928  7.489362  9.777778 23.928572 12.679245 11.586206 10.707692 10.352942  8.564706 11.194030 15.333333 13.629630 13.357142 13.963636  9.035295 
dram[1]:  9.456790  8.186047  7.569892  8.911392 24.000000 13.714286 12.000000 10.707692 10.057143  7.583333  9.842105 15.659575 12.912281 13.851851 12.387096  8.439561 
dram[2]:  8.148936  8.282353  8.585366  8.000000 24.000000 12.218182 11.789474 11.258064  9.777778  8.878049 10.246575 14.431373 14.431373 12.229508 12.800000  8.439561 
dram[3]:  9.107142  8.585366  8.000000  8.380953 25.846153 12.444445 10.838710 11.830508 10.830770  8.413794 10.535212 14.153846 14.153846 13.321428 16.340425  8.084210 
dram[4]:  8.260870  8.282353  7.257732  8.433735 22.400000 12.000000 11.200000 11.258064  9.643836  8.318182 10.388889 14.153846 12.474576 12.096774 14.769231  8.827586 
average row locality = 57632/5416 = 10.641064
number of total memory accesses made:
dram[0]:         0         0         0         0         0         0         0         0         0         0         0         0         0         0         0         0 
dram[1]:         0         0         0         0         0         0         0         0         0         0         0         0         0         0         0         0 
dram[2]:         0         0         0         0         0         0         0         0         0         0         0         0         0         0         0         0 
dram[3]:         0         0         0         0         0         0         0         0         0         0         0         0         0         0         0         0 
dram[4]:         0         0         0         0         0         0         0         0         0         0         0         0         0         0         0         0 
total accesses: 0
min_bank_accesses = 0!
min_chip_accesses = 0!
number of total read accesses:
dram[0]:       485       448       448       448       414       416       416       440       448       460       462       448       448       460       480       480 
dram[1]:       484       448       448       448       416       416       416       440       448       460       460       448       448       460       480       480 
dram[2]:       484       448       448       448       416       416       416       442       448       460       460       448       448       458       480       480 
dram[3]:       483       448       448       448       416       416       416       442       448       462       460       448       448       458       480       480 
dram[4]:       480       448       448       444       416       416       416       442       448       462       460       448       448       462       480       480 
total reads: 36000
bank skew: 485/414 = 1.17
chip skew: 7201/7198 = 1.00
number of total write accesses:
dram[0]:       282       256       256       256       256       256       256       256       256       268       288       288       288       288       288       288 
dram[1]:       282       256       256       256       256       256       256       256       256       268       288       288       288       288       288       288 
dram[2]:       282       256       256       256       256       256       256       256       256       268       288       288       288       288       288       288 
dram[3]:       282       256       256       256       256       256       256       256       256       270       288       288       288       288       288       288 
dram[4]:       280       256       256       256       256       256       256       256       256       270       288       288       288       288       288       288 
total reads: 21632
bank skew: 288/256 = 1.12
chip skew: 4328/4326 = 1.00
average mf latency per bank:
dram[0]:       2006      2370      2693      1715      1708      2424      2062      1917      2685      2303      1619      2144      2049      1363      2162      2464
dram[1]:       2003      2382      2692      1704      1703      2430      2054      1921      2701      2293      1617      2161      2030      1355      2157      2465
dram[2]:       2013      2362      2687      1730      1695      2450      2067      1901      2687      2307      1625      2175      2043      1345      2140      2465
dram[3]:       2009      2352      2688      1758      1663      2424      2079      1898      2672      2321      1635      2138      2060      1342      2113      2474
dram[4]:       2020      2358      2691      1751      1670      2423      2071      1900      2677      2310      1636      2140      2062      1355      2116      2473
maximum mf latency per bank:
dram[0]:        387       336       243       244       416       403       244       296       391       291       306       372       288       473       496       268
dram[1]:        275       270       297       255       315       290       285       378       383       256       389       431       249       355       358       264
dram[2]:        328       254       242       244       422       417       244       338       255       244       489       530       250       327       451       275
dram[3]:        247       253       244       244       399       297       274       390       336       271       448       362       270       350       370       274
dram[4]:        351       243       245       244       388       311       245       307       424       245       330       340       244       476       357       246

Number of Memory Banks Accessed per Memory Operation per Warp (from 0):
0	0	0	0	0	0	0	0	0	0	0	0	0	0	0	0	0	0	0	0	0	0	0	0	0	0	0	0	0	0	0	0	0	0	0	0	0	0	0	0	0	0	0	0	0	0	0	0	0	0	0	0	0	0	0	0	0	0	0	0	0	0	0	0	0	0	0	0	0	0	0	0	0	0	0	0	0	0	0	0	
Average # of Memory Banks Accessed per Memory Operation per Warp=-nan

position of mrq chosen
0	0	0	0	0	0	0	0	0	0	0	0	0	0	0	0	

average position of mrq chosen = -nan
gpgpu_l2_write_miss = 0
gpgpu_l2_write_access = 0
gpgpu_l2_read_miss = 0
gpgpu_l2_read_access = 0
Cache L2_bank_000:
MSHR contents

DRAM[0]: 16 bks, busW=4 BL=8 CL=12, tRRD=2 tCCD=6, tRCD=12 tRAS=28 tRP=12 tRC=40
n_cmd=30321952 n_nop=30296792 n_act=1061 n_pre=1045 n_req=11527 n_rd=14402 n_write=8652 bw_util=0.001521
n_activity=200122 dram_eff=0.2304
bk0: 970a 30315937i bk1: 896a 30315866i bk2: 896a 30316143i bk3: 896a 30316363i bk4: 828a 30315725i bk5: 832a 30315679i bk6: 832a 30315375i bk7: 880a 30315492i bk8: 896a 30314453i bk9: 920a 30314732i bk10: 924a 30314860i bk11: 896a 30316161i bk12: 896a 30312924i bk13: 920a 30312485i bk14: 960a 30311963i bk15: 960a 30288150i 
dram_util_bins: 0 0 0 0 0 0 0 0 0 0
dram_eff_bins: 0 0 0 0 0 0 0 0 0 0
mrqq: max=6 avg=0.00362553
Cache L2_bank_001:
MSHR contents
MSHR: tag=0x802a2e80, atomic=0 1 entries : 0x986f150 :  mf: uid=531908891, sid11:w05, part=1, addr=0x802a2e80, load , size=128, unknown  status = IN_PARTITION_DRAM (40429270), 

DRAM[1]: 16 bks, busW=4 BL=8 CL=12, tRRD=2 tCCD=6, tRCD=12 tRAS=28 tRP=12 tRC=40
n_cmd=30321952 n_nop=30296736 n_act=1091 n_pre=1075 n_req=11526 n_rd=14398 n_write=8652 bw_util=0.00152
n_activity=200599 dram_eff=0.2298
bk0: 966a 30316106i bk1: 896a 30316291i bk2: 896a 30316551i bk3: 896a 30315737i bk4: 832a 30315201i bk5: 832a 30315468i bk6: 832a 30315919i bk7: 880a 30315659i bk8: 896a 30314488i bk9: 920a 30314357i bk10: 920a 30314871i bk11: 896a 30316182i bk12: 896a 30313187i bk13: 920a 30312679i bk14: 960a 30311556i bk15: 960a 30287192i 
dram_util_bins: 0 0 0 0 0 0 0 0 0 0
dram_eff_bins: 0 0 0 0 0 0 0 0 0 0
mrqq: max=7 avg=0.00363773
Cache L2_bank_002:
MSHR contents
MSHR: tag=0x802a2f80, atomic=0 1 entries : 0x986ef20 :  mf: uid=531908890, sid11:w07, part=2, addr=0x802a2f80, load , size=128, unknown  status = IN_PARTITION_DRAM (40429270), 

DRAM[2]: 16 bks, busW=4 BL=8 CL=12, tRRD=2 tCCD=6, tRCD=12 tRAS=28 tRP=12 tRC=40
n_cmd=30321952 n_nop=30296732 n_act=1093 n_pre=1077 n_req=11526 n_rd=14398 n_write=8652 bw_util=0.00152
n_activity=200882 dram_eff=0.2295
bk0: 966a 30316029i bk1: 896a 30315929i bk2: 896a 30316255i bk3: 896a 30316192i bk4: 832a 30315168i bk5: 832a 30315380i bk6: 832a 30315630i bk7: 884a 30315989i bk8: 896a 30314318i bk9: 920a 30314338i bk10: 920a 30314650i bk11: 896a 30316245i bk12: 896a 30313043i bk13: 916a 30312670i bk14: 960a 30312075i bk15: 960a 30287518i 
dram_util_bins: 0 0 0 0 0 0 0 0 0 0
dram_eff_bins: 0 0 0 0 0 0 0 0 0 0
mrqq: max=7 avg=0.00362391
Cache L2_bank_003:
MSHR contents

DRAM[3]: 16 bks, busW=4 BL=8 CL=12, tRRD=2 tCCD=6, tRCD=12 tRAS=28 tRP=12 tRC=40
n_cmd=30321952 n_nop=30296780 n_act=1065 n_pre=1049 n_req=11529 n_rd=14402 n_write=8656 bw_util=0.001521
n_activity=200521 dram_eff=0.23
bk0: 966a 30315852i bk1: 896a 30315930i bk2: 896a 30316027i bk3: 896a 30316014i bk4: 832a 30315413i bk5: 832a 30315752i bk6: 832a 30315807i bk7: 884a 30315902i bk8: 896a 30314404i bk9: 924a 30314360i bk10: 920a 30314466i bk11: 896a 30316098i bk12: 896a 30313041i bk13: 916a 30312953i bk14: 960a 30312073i bk15: 960a 30288047i 
dram_util_bins: 0 0 0 0 0 0 0 0 0 0
dram_eff_bins: 0 0 0 0 0 0 0 0 0 0
mrqq: max=5 avg=0.00361388
Cache L2_bank_004:
MSHR contents

DRAM[4]: 16 bks, busW=4 BL=8 CL=12, tRRD=2 tCCD=6, tRCD=12 tRAS=28 tRP=12 tRC=40
n_cmd=30321952 n_nop=30296698 n_act=1111 n_pre=1095 n_req=11524 n_rd=14396 n_write=8652 bw_util=0.00152
n_activity=201767 dram_eff=0.2285
bk0: 960a 30315849i bk1: 896a 30315761i bk2: 896a 30316455i bk3: 888a 30316499i bk4: 832a 30315654i bk5: 832a 30315311i bk6: 832a 30315494i bk7: 884a 30315689i bk8: 896a 30314560i bk9: 924a 30314429i bk10: 920a 30314865i bk11: 896a 30316224i bk12: 896a 30313178i bk13: 924a 30312455i bk14: 960a 30311958i bk15: 960a 30286737i 
dram_util_bins: 0 0 0 0 0 0 0 0 0 0
dram_eff_bins: 0 0 0 0 0 0 0 0 0 0
mrqq: max=6 avg=0.0035809
Cache L2_bank_000:	Size = 131072 B (64 Set x 16-way x 128 byte line)
		Access = 339613, Miss = 7201 (0.0212), PendingHit = 908 (0.00267)
Cache L2_bank_001:	Size = 131072 B (64 Set x 16-way x 128 byte line)
		Access = 339608, Miss = 7200 (0.0212), PendingHit = 887 (0.00261)
Cache L2_bank_002:	Size = 131072 B (64 Set x 16-way x 128 byte line)
		Access = 339586, Miss = 7200 (0.0212), PendingHit = 853 (0.00251)
Cache L2_bank_003:	Size = 131072 B (64 Set x 16-way x 128 byte line)
		Access = 339666, Miss = 7201 (0.0212), PendingHit = 869 (0.00256)
Cache L2_bank_004:	Size = 131072 B (64 Set x 16-way x 128 byte line)
		Access = 339741, Miss = 7198 (0.0212), PendingHit = 896 (0.00264)
L2 Cache Total Miss Rate = 0.021

icnt_total_pkts_mem_to_simt=8402694
icnt_total_pkts_simt_to_mem=1784742

LD_mem_lat_dist  0 0 0 0 0 0 0 0 0 0 0 0 0 0 0 0 0 0 0 0 0 0 0 0 0 0 0
ST_mem_lat_dist  0 0 0 0 0 0 0 0 0 0 0 0 0 0 0 0 0 0 0 0 0 0 0 0 0 0 0
Traffic 0 Stat
%=================================
% Average latency = 1.08529
% Accepted packets = 0 at node 0 (avg = 0.000876375)
lat(3) = 1.08529;
thru(3,:) = [ 0 0 0 0 0 0 0 0 0 0 0 0 0 0 0.00403065 0.0040308 0.00403211 0.00403119 0.00403188 0 0 0 0 ];
% latency change    = 5.29445
% throughput change = 4.69932
Traffic 1 Stat
%=================================
% Average latency = 6.81538
% Accepted packets = 0 at node 14 (avg = 0.00412801)
lat(4) = 6.81538;
thru(4,:) = [ 0.00677803 0.00656673 0.0068788 0.00667998 0.00690723 0.0064501 0.00695109 0.00664127 0.00682878 0.00679366 0.00695202 0.00669015 0.00680421 0.00702217 0 0 0 0 0 0 0 0 0 ];
% latency change    = 0.840758
% throughput change = 0.7877
----------------------------Interconnect-DETAILS---------------------------------=======Traffic[0]class0 ======
Traffic[0]class0Overall average latency = 1.11021 (2 samples)
Traffic[0]class0Overall average accepted rate = 0.000968888 (2 samples)
Traffic[0]class0Overall min accepted rate = 0 (2 samples)
traffic_manager/latency_stat_0_freq = [ 0 837734 3799 150 100 7373 1142 377 1513 408 125 8 0 1 0 2 0 1 0 7 0 2 0 4 0 0 0 3 0 3 0 2 0 0 0 1 1 0 0 3 0 3 0 0 0 5 0 0 0 1 0 2 0 0 0 4 0 1 1 0 1 3 0 0 0 3 0 2 1 2 0 2 0 3 1 2 0 1 0 0 0 2 0 1 0 1 0 5 0 3 0 3 0 1 0 1 0 1 0 1 0 3 0 2 0 1 0 1 0 2 0 0 0 1 0 1 0 0 0 1 0 5 0 0 0 0 0 0 0 1 0 0 0 0 0 0 0 0 0 0 0 0 0 1 0 1 0 0 0 1 0 0 0 0 0 0 0 0 0 0 0 0 0 0 0 0 0 0 0 0 0 0 0 1 0 0 0 1 0 0 0 0 0 0 0 0 0 0 0 0 0 0 0 2 0 0 0 0 0 0 0 1 0 0 0 0 0 0 0 0 0 0 0 0 0 0 0 0 0 0 0 0 0 0 0 0 0 0 0 0 0 0 0 0 0 0 0 0 0 0 0 0 0 0 0 0 0 0 0 0 0 0 0 0 0 0 0 0 0 0 0 0 0 0 0 0 0 0 0 0 0 0 0 0 0 0 0 0 0 0 0 0 0 0 0 0 0 0 0 0 0 0 0 0 0 0 0 0 0 0 0 0 0 0 0 0 0 0 0 0 0 0 0 0 0 0 0 0 0 0 0 0 0 0 0 0 0 0 0 0 0 0 0 0 0 0 0 0 0 0 0 0 0 0 0 0 0 0 0 0 0 0 0 0 0 0 0 0 0 0 0 0 0 0 0 0 0 0 0 0 0 0 0 0 0 0 0 0 0 0 0 0 0 0 0 0 0 0 0 0 0 0 0 0 0 0 0 0 0 0 0 0 0 0 0 0 0 0 0 0 0 0 0 0 0 0 0 0 0 0 0 0 0 0 0 0 0 0 0 0 0 0 0 0 0 0 0 0 0 0 0 0 0 0 0 0 0 0 0 0 0 0 0 0 0 0 0 0 0 0 0 0 0 0 0 0 0 0 0 0 0 0 0 0 0 0 0 0 0 0 0 0 0 0 0 0 0 0 0 0 0 0 0 0 0 0 0 0 0 0 0 0 0 0 0 0 0 0 0 0 0 0 0 0 0 0 0 1 0 1 0 6 0 1 0 2 0 2 0 2 0 0 0 0 0 0 0 0 0 0 0 0 0 0 0 0 0 0 0 0 0 0 0 0 0 0 0 0 0 0 0 0 0 0 0 0 0 0 0 0 0 0 0 0 0 0 0 0 0 0 0 0 0 0 0 0 0 0 0 0 0 0 0 0 0 0 0 0 0 0 0 0 0 0 0 0 0 0 0 0 0 0 0 0 0 0 0 0 0 0 0 0 0 0 0 0 0 0 0 0 0 0 0 0 0 0 0 0 0 0 0 0 0 0 0 0 0 0 0 0 0 0 0 0 0 0 0 0 0 0 0 0 0 0 0 0 0 0 0 0 0 0 0 0 0 0 0 0 0 0 0 0 0 0 0 0 0 0 0 0 0 0 0 0 0 0 0 0 0 0 0 0 0 0 0 0 0 0 0 0 0 0 0 0 0 0 0 0 0 0 0 0 0 0 0 0 0 0 0 0 0 0 0 0 0 0 0 0 0 0 0 0 0 0 0 0 0 0 0 0 0 0 0 0 0 0 0 0 0 0 0 0 0 0 0 0 0 0 0 0 0 0 0 0 0 0 0 0 0 0 0 0 0 0 0 0 0 0 0 0 0 0 0 0 0 0 0 0 0 0 0 0 0 0 0 0 0 0 0 0 0 0 0 0 0 0 0 0 0 0 0 0 0 0 0 0 0 0 0 0 0 0 0 0 0 0 0 0 0 0 0 0 0 0 0 0 0 0 0 0 0 0 0 0 0 0 0 0 0 0 0 0 0 0 0 0 0 0 0 0 0 0 0 0 0 0 0 0 0 0 0 0 0 0 0 0 0 0 0 0 0 0 0 0 0 0 0 0 0 0 0 0 0 0 0 0 0 0 0 0 0 0 0 0 0 0 0 0 0 0 0 0 0 0 0 0 0 0 0 0 0 0 0 0 0 0 0 0 0 0 0 0 0 0 0 0 0 0 0 0 0 0 0 0 0 0 0 0 0 0 0 0 0 0 0 0 0 0 0 0 0 0 0 0 0 0 0 0 0 0 0 0 0 0 0 0 0 0 0 0 0 0 0 0 0 0 0 0 0 0 ];
Traffic[0]class1Average hops = 1 (1698214 samples)
traffic_manager/hop_stats_freq = [ 0 1698214 0 0 0 0 0 0 0 0 0 0 0 0 0 0 0 0 0 0 ];
=======Traffic[1]class0 ======
Traffic[1]class0Overall average latency = 6.82336 (2 samples)
Traffic[1]class0Overall average accepted rate = 0.00456138 (2 samples)
Traffic[1]class0Overall min accepted rate = 0 (2 samples)
traffic_manager/latency_stat_0_freq = [ 0 10502 49 60 52 398333 8089 11227 349970 19076 6873 6302 15487 7041 14058 727 2564 550 666 408 271 149 202 39 65 36 23 13 6 7 2 3 4 1 1 0 0 0 0 0 0 0 0 0 0 0 0 1 0 0 0 0 0 0 0 0 0 0 0 0 0 0 0 0 0 0 0 0 0 0 0 0 0 0 0 0 0 0 0 0 0 0 0 0 0 0 0 0 0 0 0 0 0 0 0 0 0 0 0 0 0 0 0 0 0 0 0 0 0 0 0 0 0 0 0 0 0 0 0 0 0 0 0 0 0 0 0 0 0 0 0 0 0 0 0 0 0 0 0 0 0 0 0 0 0 0 0 0 0 0 0 0 0 0 0 0 0 0 0 0 0 0 0 0 0 0 0 0 0 0 0 0 0 0 0 0 0 0 0 0 0 0 0 0 0 0 0 0 0 0 0 0 0 0 0 0 0 0 0 0 0 0 0 0 0 0 0 0 0 0 0 0 0 0 0 0 0 0 0 0 0 0 0 0 0 0 0 0 0 0 0 0 0 0 0 0 0 0 0 0 0 0 0 0 0 0 0 0 0 0 0 0 0 0 0 0 0 0 0 0 0 0 0 0 0 0 0 0 0 0 0 0 0 0 0 0 0 0 0 0 0 0 0 0 0 0 0 0 0 0 0 0 0 0 0 0 0 0 0 0 0 0 0 0 0 0 0 0 0 0 0 0 0 0 0 0 0 0 0 0 0 0 0 0 0 0 0 0 0 0 0 0 0 0 0 0 0 0 0 0 0 0 0 0 0 0 0 0 0 0 0 0 0 0 0 0 0 0 0 0 0 0 0 0 0 0 0 0 0 0 0 0 0 0 0 0 0 0 0 0 0 0 0 0 0 0 0 0 0 0 0 0 0 0 0 0 0 0 0 0 0 0 0 0 0 0 0 0 0 0 0 0 0 0 0 0 0 0 0 0 0 0 0 0 0 0 0 0 0 0 0 0 0 0 0 0 0 0 0 0 0 0 0 0 0 0 0 0 0 0 0 0 0 0 0 0 0 0 0 0 0 0 0 0 0 0 0 0 0 0 0 0 0 0 0 0 0 0 0 0 0 0 0 0 0 0 0 0 0 0 0 0 0 0 0 0 0 0 0 0 0 0 0 0 0 0 0 0 0 0 0 0 0 0 0 0 0 0 0 0 0 0 0 0 0 0 0 0 0 0 0 0 0 0 0 0 0 0 0 0 0 0 0 0 0 0 0 0 0 0 0 0 0 0 0 0 0 0 0 0 0 0 0 0 0 0 0 0 0 0 0 0 0 0 0 0 0 0 0 0 0 0 0 0 0 0 0 0 0 0 0 0 0 0 0 0 0 0 0 0 0 0 0 0 0 0 0 0 0 0 0 0 0 0 0 0 0 0 0 0 0 0 0 0 0 0 0 0 0 0 0 0 0 0 0 0 0 0 0 0 0 0 0 0 0 0 0 0 0 0 0 0 0 0 0 0 0 0 0 0 0 0 0 0 0 0 0 0 0 0 0 0 0 0 0 0 0 0 0 0 0 0 0 0 0 0 0 0 0 0 0 0 0 0 0 0 0 0 0 0 0 0 0 0 0 0 0 0 0 0 0 0 0 0 0 0 0 0 0 0 0 0 0 0 0 0 0 0 0 0 0 0 0 0 0 0 0 0 0 0 0 0 0 0 0 0 0 0 0 0 0 0 0 0 0 0 0 0 0 0 0 0 0 0 0 0 0 0 0 0 0 0 0 0 0 0 0 0 0 0 0 0 0 0 0 0 0 0 0 0 0 0 0 0 0 0 0 0 0 0 0 0 0 0 0 0 0 0 0 0 0 0 0 0 0 0 0 0 0 0 0 0 0 0 0 0 0 0 0 0 0 0 0 0 0 0 0 0 0 0 0 0 0 0 0 0 0 0 0 0 0 0 0 0 0 0 0 0 0 0 0 0 0 0 0 0 0 0 0 0 0 0 0 0 0 0 0 0 0 0 0 0 0 0 0 0 0 0 0 0 0 0 0 0 0 0 0 0 0 0 0 0 0 0 0 0 0 0 0 0 0 0 0 0 0 0 0 0 0 0 0 0 0 0 0 0 0 0 0 0 0 0 0 0 0 0 0 0 0 0 0 0 0 0 0 0 0 0 0 0 0 0 0 0 0 0 0 0 0 0 0 0 0 0 0 0 0 0 0 0 0 0 0 0 0 0 0 0 0 0 0 0 0 0 0 0 0 0 0 0 0 0 0 0 0 0 0 0 0 0 ];
Traffic[1]class1Average hops = 1 (1698214 samples)
traffic_manager/hop_stats_freq = [ 0 1698214 0 0 0 0 0 0 0 0 0 0 0 0 0 0 0 0 0 0 ];
----------------------------END-of-Interconnect-DETAILS-------------------------

gpgpu_simulation_time = 0 days, 17 hrs, 35 min, 0 sec (63300 sec)
gpgpu_simulation_rate = 424541 (inst/sec)
gpgpu_simulation_rate = 638 (cycle/sec)
Finished CUDA kernel calls                        
computing extra atoms on CPU


