

        *** GPGPU-Sim Simulator Version 3.2.1  [build 15629] ***


               1=functional simulation only, 0=detailed performance simulator)
GPGPU-Sim: Configuration options:

-network_mode                           1 # Interconnection network mode
-inter_config_file   config_fermi_islip.icnt # Interconnection network config file
-gpgpu_ptx_use_cuobjdump                    1 # Use cuobjdump to extract ptx and sass from binaries
-gpgpu_experimental_lib_support                    0 # Try to extract code from cuda libraries [Broken because of unknown cudaGetExportTable]
-gpgpu_ptx_convert_to_ptxplus                    0 # Convert SASS (native ISA) to ptxplus and run ptxplus
-gpgpu_ptx_force_max_capability                   20 # Force maximum compute capability
-gpgpu_ptx_inst_debug_to_file                    0 # Dump executed instructions' debug information to file
-gpgpu_ptx_inst_debug_file       inst_debug.txt # Executed instructions' debug output file
-gpgpu_ptx_inst_debug_thread_uid                    1 # Thread UID for executed instructions' debug output
-gpgpu_simd_model                       1 # 1 = post-dominator
-gpgpu_shader_core_pipeline              1536:32 # shader core pipeline config, i.e., {<nthread>:<warpsize>}
-gpgpu_tex_cache:l1  4:128:24,L:R:m:N,F:128:4,128:2 # per-shader L1 texture cache  (READ-ONLY) config  {<nsets>:<bsize>:<assoc>,<rep>:<wr>:<alloc>:<wr_alloc>,<mshr>:<N>:<merge>,<mq>:<rf>}
-gpgpu_const_cache:l1 64:64:2,L:R:f:N,A:2:32,4 # per-shader L1 constant memory cache  (READ-ONLY) config  {<nsets>:<bsize>:<assoc>,<rep>:<wr>:<alloc>:<wr_alloc>,<mshr>:<N>:<merge>,<mq>} 
-gpgpu_cache:il1     4:128:4,L:R:f:N,A:2:32,4 # shader L1 instruction cache config  {<nsets>:<bsize>:<assoc>,<rep>:<wr>:<alloc>:<wr_alloc>,<mshr>:<N>:<merge>,<mq>} 
-gpgpu_cache:dl1     32:128:4,L:L:m:N,A:32:8,8 # per-shader L1 data cache config  {<nsets>:<bsize>:<assoc>,<rep>:<wr>:<alloc>:<wr_alloc>,<mshr>:<N>:<merge>,<mq> | none}
-gpgpu_perfect_mem                      0 # enable perfect memory mode (no cache miss)
-n_regfile_gating_group                    4 # group of lanes that should be read/written together)
-gpgpu_clock_gated_reg_file                    0 # enable clock gated reg file for power calculations
-gpgpu_clock_gated_lanes                    0 # enable clock gated lanes for power calculations
-gpgpu_shader_registers                32768 # Number of registers per shader core. Limits number of concurrent CTAs. (default 8192)
-gpgpu_shader_cta                       8 # Maximum number of concurrent CTAs in shader (default 8)
-gpgpu_n_clusters                      14 # number of processing clusters
-gpgpu_n_cores_per_cluster                    1 # number of simd cores per cluster
-gpgpu_n_cluster_ejection_buffer_size                    8 # number of packets in ejection buffer
-gpgpu_n_ldst_response_buffer_size                    2 # number of response packets in ld/st unit ejection buffer
-gpgpu_shmem_size                   16384 # Size of shared memory per shader core (default 16kB)
-gpgpu_shmem_num_banks                   32 # Number of banks in the shared memory in each shader core (default 16)
-gpgpu_shmem_limited_broadcast                    0 # Limit shared memory to do one broadcast per cycle (default on)
-gpgpu_shmem_warp_parts                    1 # Number of portions a warp is divided into for shared memory bank conflict check 
-gpgpu_warpdistro_shader                   -1 # Specify which shader core to collect the warp size distribution from
-gpgpu_warp_issue_shader                    0 # Specify which shader core to collect the warp issue distribution from
-gpgpu_local_mem_map                    1 # Mapping from local memory space address to simulated GPU physical address space (default = enabled)
-gpgpu_num_reg_banks                   16 # Number of register banks (default = 8)
-gpgpu_reg_bank_use_warp_id                    0 # Use warp ID in mapping registers to banks (default = off)
-gpgpu_operand_collector_num_units_sp                    6 # number of collector units (default = 4)
-gpgpu_operand_collector_num_units_sfu                    8 # number of collector units (default = 4)
-gpgpu_operand_collector_num_units_mem                    2 # number of collector units (default = 2)
-gpgpu_operand_collector_num_units_gen                    0 # number of collector units (default = 0)
-gpgpu_operand_collector_num_in_ports_sp                    2 # number of collector unit in ports (default = 1)
-gpgpu_operand_collector_num_in_ports_sfu                    1 # number of collector unit in ports (default = 1)
-gpgpu_operand_collector_num_in_ports_mem                    1 # number of collector unit in ports (default = 1)
-gpgpu_operand_collector_num_in_ports_gen                    0 # number of collector unit in ports (default = 0)
-gpgpu_operand_collector_num_out_ports_sp                    2 # number of collector unit in ports (default = 1)
-gpgpu_operand_collector_num_out_ports_sfu                    1 # number of collector unit in ports (default = 1)
-gpgpu_operand_collector_num_out_ports_mem                    1 # number of collector unit in ports (default = 1)
-gpgpu_operand_collector_num_out_ports_gen                    0 # number of collector unit in ports (default = 0)
-gpgpu_coalesce_arch                   13 # Coalescing arch (default = 13, anything else is off for now)
-gpgpu_num_sched_per_core                    2 # Number of warp schedulers per core
-gpgpu_max_insn_issue_per_warp                    1 # Max number of instructions that can be issued per warp in one cycle by scheduler
-gpgpu_simt_core_sim_order                    1 # Select the simulation order of cores in a cluster (0=Fix, 1=Round-Robin)
-gpgpu_pipeline_widths        2,1,1,2,1,1,2 # Pipeline widths ID_OC_SP,ID_OC_SFU,ID_OC_MEM,OC_EX_SP,OC_EX_SFU,OC_EX_MEM,EX_WB
-gpgpu_num_sp_units                     2 # Number of SP units (default=1)
-gpgpu_num_sfu_units                    1 # Number of SF units (default=1)
-gpgpu_num_mem_units                    1 # Number if ldst units (default=1) WARNING: not hooked up to anything
-gpgpu_scheduler                      lrr # Scheduler configuration: < lrr | gto | two_level_active > If two_level_active:<num_active_warps>:<inner_prioritization>:<outer_prioritization>For complete list of prioritization values see shader.h enum scheduler_prioritization_typeDefault: gto
-gpgpu_dram_scheduler                    1 # 0 = fifo, 1 = FR-FCFS (defaul)
-gpgpu_dram_partition_queues              8:8:8:8 # i2$:$2d:d2$:$2i
-l2_ideal                               0 # Use a ideal L2 cache that always hit
-gpgpu_cache:dl2     64:128:16,L:B:m:W,A:32:4,4 # unified banked L2 data cache config  {<nsets>:<bsize>:<assoc>,<rep>:<wr>:<alloc>:<wr_alloc>,<mshr>:<N>:<merge>,<mq>}
-gpgpu_cache:dl2_texture_only                    0 # L2 cache used for texture only
-gpgpu_n_mem                            5 # number of memory modules (e.g. memory controllers) in gpu
-gpgpu_n_mem_per_ctrlr                    2 # number of memory chips per memory controller
-gpgpu_memlatency_stat                   14 # track and display latency statistics 0x2 enables MC, 0x4 enables queue logs
-gpgpu_frfcfs_dram_sched_queue_size                   16 # 0 = unlimited (default); # entries per chip
-gpgpu_dram_return_queue_size                    0 # 0 = unlimited (default); # entries per chip
-gpgpu_dram_buswidth                    4 # default = 4 bytes (8 bytes per cycle at DDR)
-gpgpu_dram_burst_length                    8 # Burst length of each DRAM request (default = 4 data bus cycle)
-dram_data_command_freq_ratio                    4 # Frequency ratio between DRAM data bus and command bus (default = 2 times, i.e. DDR)
-gpgpu_dram_timing_opt nbk=16:CCD=2:RRD=6:RCD=12:RAS=28:RP=12:RC=40: CL=12:WL=4:CDLR=5:WR=12:nbkgrp=4:CCDL=3:RTPL=2 # DRAM timing parameters = {nbk:tCCD:tRRD:tRCD:tRAS:tRP:tRC:CL:WL:tCDLR:tWR:nbkgrp:tCCDL:tRTPL}
-rop_latency                          120 # ROP queue latency (default 85)
-dram_latency                         100 # DRAM latency (default 30)
-gpgpu_mem_addr_mapping dramid@8;00000000.00000000.00000000.00000000.0000RRRR.RRRRRRRR.BBBBCCCC.CCSSSSSS # mapping memory address to dram model {dramid@<start bit>;<memory address map>}
-gpgpu_mem_addr_test                    0 # run sweep test to check address mapping for aliased address
-gpgpu_mem_address_mask                    1 # 0 = old addressing mask, 1 = new addressing mask, 2 = new add. mask + flipped bank sel and chip sel bits
-gpuwattch_xml_file         gpuwattch.xml # GPUWattch XML file
-power_simulation_enabled                    1 # Turn on power simulator (1=On, 0=Off)
-power_per_cycle_dump                    0 # Dump detailed power output each cycle
-power_trace_enabled                    1 # produce a file for the power trace (1=On, 0=Off)
-power_trace_zlevel                     6 # Compression level of the power trace output log (0=no comp, 9=highest)
-steady_power_levels_enabled                    0 # produce a file for the steady power levels (1=On, 0=Off)
-steady_state_definition                  8:4 # allowed deviation:number of samples
-gpgpu_max_cycle                        0 # terminates gpu simulation early (0 = no limit)
-gpgpu_max_insn                         0 # terminates gpu simulation early (0 = no limit)
-gpgpu_max_cta                          0 # terminates gpu simulation early (0 = no limit)
-gpgpu_runtime_stat                   500 # display runtime statistics such as dram utilization {<freq>:<flag>}
-gpgpu_flush_l1_cache                    0 # Flush L1 cache at the end of each kernel call
-gpgpu_flush_l2_cache                    0 # Flush L2 cache at the end of each kernel call
-gpgpu_deadlock_detect                    1 # Stop the simulation at deadlock (1=on (default), 0=off)
-gpgpu_ptx_instruction_classification                    0 # if enabled will classify ptx instruction types per kernel (Max 255 kernels now)
-gpgpu_ptx_sim_mode                     0 # Select between Performance (default) or Functional simulation (1)
-gpgpu_clock_domains 600.0:1200.0:600.0:600.0 # Clock Domain Frequencies in MhZ {<Core Clock>:<ICNT Clock>:<L2 Clock>:<DRAM Clock>}
-gpgpu_max_concurrent_kernel                    8 # maximum kernels that can run concurrently on GPU
-gpgpu_cflog_interval                    0 # Interval between each snapshot in control flow logger
-visualizer_enabled                     0 # Turn on visualizer output (1=On, 0=Off)
-visualizer_outputfile                 NULL # Specifies the output log file for visualizer
-visualizer_zlevel                      6 # Compression level of the visualizer output log (0=no comp, 9=highest)
-trace_enabled                          0 # Turn on traces
-trace_components                    none # comma seperated list of traces to enable. Complete list found in trace_streams.tup. Default none
-trace_sampling_core                    0 # The core which is printed using CORE_DPRINTF. Default 0
-enable_ptx_file_line_stats                    1 # Turn on PTX source line statistic profiling. (1 = On)
-ptx_line_stats_filename gpgpu_inst_stats.txt # Output file for PTX source line statistics.
-save_embedded_ptx                      0 # saves ptx files embedded in binary as <n>.ptx
-keep                                   0 # keep intermediate files created by GPGPU-Sim when interfacing with external programs
-gpgpu_ptx_save_converted_ptxplus                    0 # Saved converted ptxplus to a file
-ptx_opcode_latency_int         4,13,4,5,145 # Opcode latencies for integers <ADD,MAX,MUL,MAD,DIV>Default 1,1,19,25,145
-ptx_opcode_latency_fp          4,13,4,5,39 # Opcode latencies for single precision floating points <ADD,MAX,MUL,MAD,DIV>Default 1,1,1,1,30
-ptx_opcode_latency_dp         8,19,8,8,330 # Opcode latencies for double precision floating points <ADD,MAX,MUL,MAD,DIV>Default 8,8,8,8,335
-ptx_opcode_initiation_int            1,2,2,1,8 # Opcode initiation intervals for integers <ADD,MAX,MUL,MAD,DIV>Default 1,1,4,4,32
-ptx_opcode_initiation_fp            1,2,1,1,4 # Opcode initiation intervals for single precision floating points <ADD,MAX,MUL,MAD,DIV>Default9e11f6fdde5822d3491c5285aa62e2ae  /tmp/tmp.fjJ9euHVHy/histo__SIZE1_1
 1,1,1,1,5
-ptx_opcode_initiation_dp         8,16,8,8,130 # Opcode initiation intervals for double precision floating points <ADD,MAX,MUL,MAD,DIV>Default 8,8,8,8,130
DRAM Timing Options:
nbk                                    16 # number of banks
CCD                                     2 # column to column delay
RRD                                     6 # minimal delay between activation of rows in different banks
RCD                                    12 # row to column delay
RAS                                    28 # time needed to activate row
RP                                     12 # time needed to precharge (deactivate) row
RC                                     40 # row cycle time
CDLR                                    5 # switching from write to read (changes tWTR)
WR                                     12 # last data-in to row precharge
CL                                     12 # CAS latency
WL                                      4 # Write latency
nbkgrp                                  4 # number of bank groups
CCDL                                    3 # column to column delay between accesses to different bank groups
RTPL                                    2 # read to precharge delay between accesses to different bank groups
addr_dec_mask[CHIP]  = 0000000000000000 	high:64 low:0
addr_dec_mask[BK]    = 000000000000f000 	high:16 low:12
addr_dec_mask[ROW]   = 000000000fff0000 	high:28 low:16
addr_dec_mask[COL]   = 0000000000000fff 	high:12 low:0
addr_dec_mask[BURST] = 000000000000003f 	high:6 low:0
*** Initializing Memory Statistics ***
self exe links to: /tmp/tmp.fjJ9euHVHy/histo__SIZE1_1
Running md5sum using "md5sum /tmp/tmp.fjJ9euHVHy/histo__SIZE1_1 "
Running cuobjdump using "$CUDA_INSTALL_PATH/bin/cuobjdump -ptx -elf -sass /tmp/tmp.fjJ9euHVHy/histo__SIZE1_1 > _cuobjdump_complete_output_V2H9FX"
Parsing file _cuobjdump_complete_output_V2H9FX
######### cuobjdump parser ########
## Adding new section PTX
Adding ptx filename: _cuobjdump_1.ptx
Adding arch: sm_13
Adding identifier: benchmarks/histo/histo.cu
## Adding new section ELF
Adding arch: sm_13
Adding identifier: benchmarks/histo/histo.cu
Done parsing!!!
Adding _cuobjdump_1.ptx with cubin handle 1
Running: cat _ptx_4nIGvo | sed 's/.version 1.5/.version 1.4/' | sed 's/, texmode_independent//' | sed 's/\(\.extern \.const\[1\] .b8 \w\+\)\[\]/\1\[1\]/' | sed 's/const\[.\]/const\[0\]/g' > _ptx2_1e5elP

kernel '_Z20histo_prescan_kernelPjiS_' transfer to GPU hardware scheduler
kernel_name = _Z20histo_prescan_kernelPjiS_ 
kernel_launch_uid = 1 
gpu_sim_cycle = 16559
gpu_sim_insn = 5500864
gpu_ipc =     332.1978
gpu_tot_sim_cycle = 16559
gpu_tot_sim_insn = 5500864
gpu_tot_ipc =     332.1978
gpu_tot_issued_cta = 0
gpu_stall_dramfull = 14837
gpu_stall_icnt2sh    = 14437
gpu_total_sim_rate=550086
Cache L1D_000:	Size = 16384 B (32 Set x 4-way x 128 byte line)
		Access = 762, Miss = 378 (0.496), PendingHit = 184 (0.241)
Cache L1D_001:	Size = 16384 B (32 Set x 4-way x 128 byte line)
		Access = 894, Miss = 445 (0.498), PendingHit = 221 (0.247)
Cache L1D_002:	Size = 16384 B (32 Set x 4-way x 128 byte line)
		Access = 1016, Miss = 438 (0.431), PendingHit = 224 (0.22)
Cache L1D_003:	Size = 16384 B (32 Set x 4-way x 128 byte line)
		Access = 1016, Miss = 444 (0.437), PendingHit = 304 (0.299)
Cache L1D_004:	Size = 16384 B (32 Set x 4-way x 128 byte line)
		Access = 1528, Miss = 825 (0.54), PendingHit = 255 (0.167)
Cache L1D_005:	Size = 16384 B (32 Set x 4-way x 128 byte line)
		Access = 1398, Miss = 850 (0.608), PendingHit = 215 (0.154)
Cache L1D_006:	Size = 16384 B (32 Set x 4-way x 128 byte line)
		Access = 1020, Miss = 435 (0.426), PendingHit = 273 (0.268)
Cache L1D_007:	Size = 16384 B (32 Set x 4-way x 128 byte line)
		Access = 1524, Miss = 891 (0.585), PendingHit = 197 (0.129)
Cache L1D_008:	Size = 16384 B (32 Set x 4-way x 128 byte line)
		Access = 1016, Miss = 441 (0.434), PendingHit = 265 (0.261)
Cache L1D_009:	Size = 16384 B (32 Set x 4-way x 128 byte line)
		Access = 1528, Miss = 850 (0.556), PendingHit = 310 (0.203)
Cache L1D_010:	Size = 16384 B (32 Set x 4-way x 128 byte line)
		Access = 1020, Miss = 447 (0.438), PendingHit = 278 (0.273)
Cache L1D_011:	Size = 16384 B (32 Set x 4-way x 128 byte line)
		Access = 1528, Miss = 912 (0.597), PendingHit = 160 (0.105)
Cache L1D_012:	Size = 16384 B (32 Set x 4-way x 128 byte line)
		Access = 1016, Miss = 434 (0.427), PendingHit = 252 (0.248)
Cache L1D_013:	Size = 16384 B (32 Set x 4-way x 128 byte line)
		Access = 762, Miss = 373 (0.49), PendingHit = 184 (0.241)
total_dl1_misses=8163
total_dl1_accesses=16028
total_dl1_miss_rate= 0.509296
Shader 0 dynamic_warp_id issue ditsribution:
dynamic_warp_id:
0, 1, 2, 3, 4, 5, 6, 7, 8, 9, 10, 11, 12, 13, 14, 15, 16, 17, 18, 19, 20, 21, 22, 23, 24, 25, 26, 27, 28, 29, 30, 31, 32, 33, 34, 35, 36, 37, 38, 39, 40, 41, 42, 43, 44, 45, 46, 47, 
distro:
269, 201, 188, 188, 175, 175, 175, 175, 162, 162, 162, 162, 162, 162, 162, 162, 269, 201, 188, 188, 175, 175, 175, 175, 162, 162, 162, 162, 162, 162, 162, 162, 269, 201, 188, 188, 175, 175, 175, 175, 162, 162, 162, 162, 162, 162, 162, 162, 
gpgpu_n_tot_thrd_icount = 5820416
gpgpu_n_tot_w_icount = 181888
gpgpu_n_icache_hits = 104640
gpgpu_n_icache_misses = 3934
gpgpu_n_l1dcache_read_hits = 4543
gpgpu_n_l1dcache_read_misses = 11485
gpgpu_n_l1dcache_write_accesses = 0
gpgpu_n_l1dcache_wirte_misses = 0
gpgpu_n_tcache_hits = 0
gpgpu_n_tcache_misses = 0
gpgpu_n_ccache_hits = 2688
gpgpu_n_ccache_misses = 448
gpgpu_n_stall_shd_mem = 58505
gpgpu_n_mem_read_local = 0
gpgpu_n_mem_write_local = 0
gpgpu_n_mem_read_global = 8291
gpgpu_n_mem_write_global = 0
gpgpu_n_mem_texture = 0
gpgpu_n_mem_const = 14
gpgpu_n_load_insn  = 518144
gpgpu_n_store_insn = 0
gpgpu_n_shmem_insn = 782208
gpgpu_n_tex_insn = 0
gpgpu_n_const_mem_insn = 0
gpgpu_n_param_mem_insn = 196736
gpgpu_n_shmem_bkconflict = 0
gpgpu_n_cache_bkconflict = 0
gpgpu_n_intrawarp_mshr_merge = 0
gpgpu_n_cmem_portconflict = 3059
gpgpu_stall_shd_mem[c_mem][bk_conf] = 3059
gpgpu_stall_shd_mem[c_mem][mshr_rc] = 0
gpgpu_stall_shd_mem[c_mem][icnt_rc] = 0
gpgpu_stall_shd_mem[t_mem][mshr_rc] = 0
gpgpu_stall_shd_mem[t_mem][icnt_rc] = 0
gpgpu_stall_shd_mem[s_mem][bk_conf] = 0
gpgpu_stall_shd_mem[gl_mem][bk_conf] = 0
gpgpu_stall_shd_mem[gl_mem][coal_stall] = 55446
gpgpu_stall_shd_mem[g_mem_ld][mshr_rc] = 0
gpgpu_stall_shd_mem[g_mem_ld][icnt_rc] = 0
gpgpu_stall_shd_mem[g_mem_ld][wb_icnt_rc] = 0
gpgpu_stall_shd_mem[g_mem_ld][wb_rsrv_fail] = 0
gpgpu_stall_shd_mem[g_mem_st][mshr_rc] = 0
gpgpu_stall_shd_mem[g_mem_st][icnt_rc] = 0
gpgpu_stall_shd_mem[g_mem_st][wb_icnt_rc] = 0
gpgpu_stall_shd_mem[g_mem_st][wb_rsrv_fail] = 0
gpgpu_stall_shd_mem[l_mem_ld][mshr_rc] = 0
gpgpu_stall_shd_mem[l_mem_ld][icnt_rc] = 0
gpgpu_stall_shd_mem[l_mem_ld][wb_icnt_rc] = 0
gpgpu_stall_shd_mem[l_mem_ld][wb_rsrv_fail] = 0
gpgpu_stall_shd_mem[l_mem_st][mshr_rc] = 0
gpgpu_stall_shd_mem[l_mem_st][icnt_rc] = 0
gpgpu_stall_shd_mem[l_mem_ld][wb_icnt_rc] = 0
gpgpu_stall_shd_mem[l_mem_ld][wb_rsrv_fail] = 0
gpu_reg_bank_conflict_stalls = 0
Warp Occupancy Distribution:
Stall:97812	W0_Idle:53618	W0_Scoreboard:52686	W1:1472	W2:512	W3:0	W4:512	W5:0	W6:0	W7:1088	W8:512	W9:0	W10:0	W11:0	W12:0	W13:0	W14:0	W15:0	W16:512	W17:0	W18:0	W19:0	W20:0	W21:0	W22:0	W23:0	W24:0	W25:0	W26:0	W27:0	W28:0	W29:0	W30:0	W31:0	W32:177280
maxmrqlatency = 196 
maxdqlatency = 0 
maxmflatency = 818 
averagemflatency = 316 
max_icnt2mem_latency = 439 
max_icnt2sh_latency = 31 
mrq_lat_table:1629 	127 	144 	227 	650 	796 	508 	40 	0 	0 	0 	0 	0 	0 	0 	0 	0 	0 	0 	0 	0 	0 	0 	0 	0 	0 	0 	0 	0 	0 	0 	0 	
dq_lat_table:0 	0 	0 	0 	0 	0 	0 	0 	0 	0 	0 	0 	0 	0 	0 	0 	0 	0 	0 	0 	0 	0 	0 	0 	0 	0 	0 	0 	0 	0 	0 	0 	
mf_lat_table:0 	0 	0 	0 	0 	0 	501 	2270 	4541 	993 	0 	0 	0 	0 	0 	0 	0 	0 	0 	0 	0 	0 	0 	0 	0 	0 	0 	0 	0 	0 	0 	0 	
icnt2mem_lat_table:158 	3953 	406 	376 	403 	507 	976 	1485 	195 	0 	0 	0 	0 	0 	0 	0 	0 	0 	0 	0 	0 	0 	0 	0 	
icnt2sh_lat_table:78 	3345 	2008 	2705 	169 	0 	0 	0 	0 	0 	0 	0 	0 	0 	0 	0 	0 	0 	0 	0 	0 	0 	0 	0 	
mf_lat_pw_table:0 	0 	0 	0 	0 	0 	5 	7 	13 	0 	0 	0 	0 	0 	0 	0 	0 	0 	0 	0 	0 	0 	0 	0 	0 	0 	0 	0 	0 	0 	0 	0 	
maximum concurrent accesses to same row:
dram[0]:         9         5         4         4         4         4         4         4         4         4         4         7         4         6         7         4 
dram[1]:         9         6         4         4         4         4         4         5         4         4         4         8         4         6         5         2 
dram[2]:        10         7         4         4         4         4         4         4         4         4         4        10         4         5         4         3 
dram[3]:         7         8         4         4         4         4         4         4         4         4         4        10         4         4         6         5 
dram[4]:         8         7         4         6         4         4         5         5         4         4         3        10         6         4         5         4 
maximum service time to same row:
dram[0]:      3581      7937      1534      2037      8490      7191      1568     10075      6304      1556     10048      6328      1570      7303      7001      1528 
dram[1]:      4361      7846      1543      1732      8393      7228      1568     10092      6326      1555     10061      6282      1532      7287      6318      1530 
dram[2]:      5985      8132      1559      1705      8398      7249      1565     10041      6370      1535     10084      6015      1725      7069      5892      1532 
dram[3]:      5575      8230      1540      4784      8335      7101      1701     10040      6317      1537     10084      5869      1755      7138      5912      1524 
dram[4]:      4703      8073      1539      2042      8475      7529      1663     10076      6633      1554     10049      6317      1768      7187      5606      1526 
average row accesses per activate:
dram[0]:  3.857143  2.370370  2.030303  2.600000  3.000000  2.206897  2.052632  3.166667  2.000000  1.870968  2.133333  2.166667  1.837838  4.800000  2.750000  1.882353 
dram[1]:  3.375000  2.233333  1.970588  2.700000  2.318182  2.310345  2.333333  2.733333  2.031250  1.794118  2.307692  2.275862  1.969697  4.800000  2.161290  1.477273 
dram[2]:  5.200000  2.193548  1.777778  2.076923  2.941176  1.888889  2.615385  2.866667  2.461539  1.848485  2.307692  2.266667  2.000000  5.200000  2.370370  1.789474 
dram[3]:  2.600000  2.481482  1.805556  1.846154  2.428571  1.914286  2.266667  2.647059  2.166667  1.935484  2.142857  2.125000  1.937500  3.500000  2.321429  1.888889 
dram[4]:  3.250000  2.370370  1.914286  2.750000  2.500000  2.206897  2.312500  3.000000  2.193548  1.583333  1.941176  2.031250  2.407408  3.250000  2.344828  1.969697 
average row locality = 4121/1875 = 2.197867
number of total memory accesses made:
dram[0]:         0         0         0         0         0         0         0         0         0         0         0         0         0         0         0         0 
dram[1]:         0         0         0         0         0         0         0         0         0         0         0         0         0         0         0         0 
dram[2]:         0         0         0         0         0         0         0         0         0         0         0         0         0         0         0         0 
dram[3]:         0         0         0         0         0         0         0         0         0         0         0         0         0         0         0         0 
dram[4]:         0         0         0         0         0         0         0         0         0         0         0         0         0         0         0         0 
total accesses: 0
min_bank_accesses = 0!
min_chip_accesses = 0!
number of total read accesses:
dram[0]:        27        64        67        26        54        64        39        38        68        58        32        65        68        24        66        64 
dram[1]:        27        67        67        27        51        67        35        41        65        61        30        66        65        24        67        65 
dram[2]:        26        68        64        27        50        68        34        43        64        61        30        68        62        26        64        68 
dram[3]:        26        67        65        24        51        67        34        45        65        60        30        68        62        28        65        68 
dram[4]:        26        64        67        22        55        64        37        42        68        57        33        65        65        26        68        65 
total reads: 4121
bank skew: 68/22 = 3.09
chip skew: 825/823 = 1.00
number of total write accesses:
dram[0]:         0         0         0         0         0         0         0         0         0         0         0         0         0         0         0         0 
dram[1]:         0         0         0         0         0         0         0         0         0         0         0         0         0         0         0         0 
dram[2]:         0         0         0         0         0         0         0         0         0         0         0         0         0         0         0         0 
dram[3]:         0         0         0         0         0         0         0         0         0         0         0         0         0         0         0         0 
dram[4]:         0         0         0         0         0         0         0         0         0         0         0         0         0         0         0         0 
total reads: 0
min_bank_accesses = 0!
min_chip_accesses = 0!
average mf latency per bank:
dram[0]:        621       498       693       639       414       681       697       418       662       729       308       600       738       489       508       728
dram[1]:        474       477       736       711       419       676       685       431       704       757       306       637       721       487       528       757
dram[2]:        489       517       746       709       440       720       725       429       694       741       317       653       713       503       537       740
dram[3]:        582       523       815      1657       457       816       854       458       753       813       328       722       851       523       552       852
dram[4]:        536       505       710       691       420       726       735       433       702       742       316       657       774       479       514       767
maximum mf latency per bank:
dram[0]:        498       509       593       524       399       682       688       315       611       625       350       588       690       429       738       661
dram[1]:        514       573       665       521       449       606       606       341       697       616       316       609       707       436       641       646
dram[2]:        519       501       672       523       451       663       580       363       665       627       322       634       706       483       818       640
dram[3]:        626       559       746       638       572       676       810       413       780       712       351       709       817       504       702       796
dram[4]:        638       518       603       538       456       714       577       378       651       597       335       631       693       484       685       719

Number of Memory Banks Accessed per Memory Operation per Warp (from 0):
0	0	0	0	0	0	0	0	0	0	0	0	0	0	0	0	0	0	0	0	0	0	0	0	0	0	0	0	0	0	0	0	0	0	0	0	0	0	0	0	0	0	0	0	0	0	0	0	0	0	0	0	0	0	0	0	0	0	0	0	0	0	0	0	0	0	0	0	0	0	0	0	0	0	0	0	0	0	0	0	
Average # of Memory Banks Accessed per Memory Operation per Warp=-nan

position of mrq chosen
0	0	0	0	0	0	0	0	0	0	0	0	0	0	0	0	

average position of mrq chosen = -nan
gpgpu_l2_write_miss = 0
gpgpu_l2_write_access = 0
gpgpu_l2_read_miss = 0
gpgpu_l2_read_access = 0
Cache L2_bank_000:
MSHR contents

DRAM[0]: 16 bks, busW=4 BL=8 CL=12, tRRD=2 tCCD=6, tRCD=12 tRAS=28 tRP=12 tRC=40
n_cmd=16559 n_nop=14195 n_act=366 n_pre=350 n_req=824 n_rd=1648 n_write=0 bw_util=0.199
n_activity=5159 dram_eff=0.6389
bk0: 54a 15905i bk1: 128a 15612i bk2: 134a 15112i bk3: 52a 15676i bk4: 108a 15787i bk5: 128a 15048i bk6: 78a 15509i bk7: 76a 15890i bk8: 136a 15156i bk9: 116a 15271i bk10: 64a 15846i bk11: 130a 15289i bk12: 136a 15055i bk13: 48a 15690i bk14: 132a 14901i bk15: 128a 13328i 
dram_util_bins: 0 0 0 0 0 0 0 0 0 0
dram_eff_bins: 0 0 0 0 0 0 0 0 0 0
mrqq: max=16 avg=1.15067
Cache L2_bank_001:
MSHR contents

DRAM[1]: 16 bks, busW=4 BL=8 CL=12, tRRD=2 tCCD=6, tRCD=12 tRAS=28 tRP=12 tRC=40
n_cmd=16559 n_nop=14155 n_act=385 n_pre=369 n_req=825 n_rd=1650 n_write=0 bw_util=0.1993
n_activity=5248 dram_eff=0.6288
bk0: 54a 15838i bk1: 134a 15556i bk2: 134a 15107i bk3: 54a 15619i bk4: 102a 15725i bk5: 134a 15055i bk6: 70a 15559i bk7: 82a 15840i bk8: 130a 15123i bk9: 122a 15083i bk10: 60a 15896i bk11: 132a 15291i bk12: 130a 15091i bk13: 48a 15640i bk14: 134a 14929i bk15: 130a 13165i 
dram_util_bins: 0 0 0 0 0 0 0 0 0 0
dram_eff_bins: 0 0 0 0 0 0 0 0 0 0
mrqq: max=16 avg=1.19862
Cache L2_bank_002:
MSHR contents

DRAM[2]: 16 bks, busW=4 BL=8 CL=12, tRRD=2 tCCD=6, tRCD=12 tRAS=28 tRP=12 tRC=40
n_cmd=16559 n_nop=14189 n_act=370 n_pre=354 n_req=823 n_rd=1646 n_write=0 bw_util=0.1988
n_activity=5214 dram_eff=0.6314
bk0: 52a 15886i bk1: 136a 15669i bk2: 128a 15036i bk3: 54a 15659i bk4: 100a 15788i bk5: 136a 15157i bk6: 68a 15524i bk7: 86a 15803i bk8: 128a 15152i bk9: 122a 15236i bk10: 60a 15963i bk11: 136a 15307i bk12: 124a 14987i bk13: 52a 15748i bk14: 128a 14936i bk15: 136a 13339i 
dram_util_bins: 0 0 0 0 0 0 0 0 0 0
dram_eff_bins: 0 0 0 0 0 0 0 0 0 0
mrqq: max=16 avg=1.24307
Cache L2_bank_003:
MSHR contents

DRAM[3]: 16 bks, busW=4 BL=8 CL=12, tRRD=2 tCCD=6, tRCD=12 tRAS=28 tRP=12 tRC=40
n_cmd=16559 n_nop=14155 n_act=385 n_pre=369 n_req=825 n_rd=1650 n_write=0 bw_util=0.1993
n_activity=5272 dram_eff=0.6259
bk0: 52a 15821i bk1: 134a 15607i bk2: 130a 15176i bk3: 48a 15636i bk4: 102a 15745i bk5: 134a 15165i bk6: 68a 15552i bk7: 90a 15757i bk8: 130a 15167i bk9: 120a 15104i bk10: 60a 15822i bk11: 136a 15258i bk12: 124a 15015i bk13: 56a 15633i bk14: 130a 14798i bk15: 136a 13207i 
dram_util_bins: 0 0 0 0 0 0 0 0 0 0
dram_eff_bins: 0 0 0 0 0 0 0 0 0 0
mrqq: max=16 avg=1.30757
Cache L2_bank_004:
MSHR contents

DRAM[4]: 16 bks, busW=4 BL=8 CL=12, tRRD=2 tCCD=6, tRCD=12 tRAS=28 tRP=12 tRC=40
n_cmd=16559 n_nop=14183 n_act=372 n_pre=356 n_req=824 n_rd=1648 n_write=0 bw_util=0.199
n_activity=5171 dram_eff=0.6374
bk0: 52a 15889i bk1: 128a 15593i bk2: 134a 15211i bk3: 44a 15756i bk4: 110a 15752i bk5: 128a 15086i bk6: 74a 15525i bk7: 84a 15839i bk8: 136a 15187i bk9: 114a 15150i bk10: 66a 15884i bk11: 130a 15356i bk12: 130a 15163i bk13: 52a 15710i bk14: 136a 15017i bk15: 130a 13141i 
dram_util_bins: 0 0 0 0 0 0 0 0 0 0
dram_eff_bins: 0 0 0 0 0 0 0 0 0 0
mrqq: max=16 avg=1.26481
Cache L2_bank_000:	Size = 131072 B (64 Set x 16-way x 128 byte line)
		Access = 1669, Miss = 824 (0.494), PendingHit = 7 (0.00419)
Cache L2_bank_001:	Size = 131072 B (64 Set x 16-way x 128 byte line)
		Access = 1670, Miss = 825 (0.494), PendingHit = 9 (0.00539)
Cache L2_bank_002:	Size = 131072 B (64 Set x 16-way x 128 byte line)
		Access = 1674, Miss = 823 (0.492), PendingHit = 6 (0.00358)
Cache L2_bank_003:	Size = 131072 B (64 Set x 16-way x 128 byte line)
		Access = 1789, Miss = 825 (0.461), PendingHit = 9 (0.00503)
Cache L2_bank_004:	Size = 131072 B (64 Set x 16-way x 128 byte line)
		Access = 1657, Miss = 824 (0.497), PendingHit = 2 (0.00121)
L2 Cache Total Miss Rate = 0.487

icnt_total_pkts_mem_to_simt=41883
icnt_total_pkts_simt_to_mem=8459

LD_mem_lat_dist  0 0 0 0 0 0 0 0 0 0 0 0 0 0 0 0 0 0 0 0 0 0 0 0 0 0 0
ST_mem_lat_dist  0 0 0 0 0 0 0 0 0 0 0 0 0 0 0 0 0 0 0 0 0 0 0 0 0 0 0
Traffic 0 Stat
%=================================
% Average latency = 57.9441
% Accepted packets = 0 at node 0 (avg = 0.0112736)
lat(1) = 57.9441;
thru(1,:) = [ 0 0 0 0 0 0 0 0 0 0 0 0 0 0 0.0503971 0.0504273 0.0505481 0.0578857 0.0500347 0 0 0 0 ];
% latency change    = 1
% throughput change = 1
Traffic 1 Stat
%=================================
% Average latency = 11.2111
% Accepted packets = 0 at node 14 (avg = 0.0549869)
lat(2) = 11.2111;
thru(2,:) = [ 0.0591841 0.0694205 0.0683637 0.0692696 0.127034 0.130809 0.0679107 0.136999 0.0688166 0.130809 0.0697225 0.14017 0.0677598 0.0584292 0 0 0 0 0 0 0 0 0 ];
% latency change    = 4.16844
% throughput change = 0.794976
----------------------------Interconnect-DETAILS---------------------------------=======Traffic[0]class0 ======
Traffic[0]class0Overall average latency = 57.9441 (1 samples)
Traffic[0]class0Overall average accepted rate = 0.0112736 (1 samples)
Traffic[0]class0Overall min accepted rate = 0 (1 samples)
traffic_manager/latency_stat_0_freq = [ 0 4866 564 107 56 49 38 34 35 29 21 35 19 22 19 14 7 32 10 18 6 22 7 16 3 11 4 20 2 13 8 18 5 13 3 10 3 11 5 16 3 11 6 16 4 16 4 10 2 13 5 10 7 12 5 9 5 12 7 9 8 9 3 6 1 13 3 5 6 9 4 14 5 16 5 15 3 12 4 9 4 7 2 8 4 13 4 15 5 11 4 7 9 13 5 10 7 11 4 6 4 14 6 16 4 15 5 11 0 10 3 9 2 12 3 12 5 10 3 13 1 11 4 9 1 7 1 7 2 7 4 6 4 9 5 12 0 9 2 12 5 13 2 7 4 9 3 8 4 13 4 6 2 10 4 7 2 7 3 8 4 8 1 12 2 8 3 12 5 15 5 10 0 6 4 12 3 7 4 7 2 15 3 16 3 16 3 16 4 12 3 6 2 13 2 7 3 14 4 13 3 5 3 8 3 11 3 16 1 9 2 14 3 6 3 9 4 9 0 13 0 10 4 14 2 11 3 6 5 14 0 12 3 7 4 17 2 14 6 15 3 11 1 11 1 18 3 12 2 16 3 21 0 24 2 15 3 5 3 6 3 16 4 15 2 11 3 12 2 15 4 17 3 26 3 17 4 14 1 8 1 13 1 12 4 12 4 10 2 14 3 10 1 11 0 11 3 3 0 9 1 13 0 5 1 7 2 8 1 11 1 10 1 4 1 8 1 13 5 7 1 4 1 6 2 8 1 9 4 7 4 7 0 8 0 3 1 3 2 2 3 4 2 6 1 3 0 2 1 7 0 4 1 3 0 7 1 4 0 2 0 4 1 2 0 4 0 3 3 3 0 4 2 8 2 7 2 4 1 3 0 2 2 3 1 4 0 4 0 0 0 3 0 6 0 1 0 9 0 5 0 1 1 0 0 1 0 2 0 2 0 1 0 1 1 1 0 3 0 3 0 1 0 0 0 1 0 1 0 1 0 1 0 3 0 3 0 0 0 2 0 1 0 1 0 1 0 1 0 0 0 1 0 0 0 1 0 0 0 1 0 0 0 0 0 0 0 0 0 0 0 2 0 1 0 1 0 0 1 0 0 0 0 0 0 0 0 0 0 0 0 0 0 1 0 0 0 0 1 0 0 1 0 0 0 0 1 0 0 0 0 1 0 0 1 0 0 0 0 0 0 1 0 0 0 1 1 0 0 0 0 0 2 0 0 0 0 0 0 1 0 0 0 0 0 1 0 2 0 0 0 0 0 1 0 0 0 0 0 1 0 0 0 1 0 0 0 1 0 3 0 6 0 1 0 0 0 1 0 0 0 0 0 0 0 0 0 0 0 1 0 1 0 0 0 0 0 0 0 0 0 1 0 0 0 1 0 0 0 0 0 1 0 1 0 0 0 0 0 0 0 2 0 0 0 0 0 0 0 2 0 1 0 0 0 0 0 0 0 0 0 1 0 1 0 0 0 0 0 0 0 0 0 0 0 1 0 0 0 0 0 0 0 1 0 0 0 0 0 0 0 0 0 1 0 0 0 0 0 0 0 0 0 0 0 0 0 1 0 0 0 1 0 0 0 0 0 0 0 0 0 0 0 0 0 0 0 0 0 0 0 0 0 0 0 0 0 1 0 0 0 0 0 0 0 0 0 0 0 0 0 0 0 0 0 0 0 0 0 0 0 0 0 0 0 0 0 0 0 0 0 0 0 0 0 0 0 0 0 0 0 0 0 0 0 0 0 0 0 0 0 0 0 0 0 0 0 0 0 0 0 0 0 0 0 0 0 0 0 0 0 0 0 0 0 0 0 1 0 0 0 0 0 0 0 0 0 0 0 0 0 0 0 0 0 0 0 0 0 0 0 0 0 0 0 0 0 0 0 0 0 0 0 0 0 0 0 0 0 0 0 0 0 0 0 0 0 0 0 0 0 0 0 0 0 0 0 0 0 0 0 0 0 0 0 0 0 0 0 0 0 0 0 0 0 0 0 0 0 0 0 0 0 0 0 0 0 0 0 0 0 0 0 0 0 0 0 0 0 0 0 0 0 0 0 0 0 0 0 0 0 0 0 0 0 0 0 0 0 0 0 0 0 0 0 0 0 0 0 0 0 0 0 0 0 0 0 0 0 0 0 0 0 0 0 0 0 0 0 0 0 0 0 0 0 0 0 0 0 0 0 0 0 0 0 0 0 0 0 0 0 0 0 0 0 0 0 0 0 0 0 0 0 0 0 0 0 0 0 0 0 0 0 0 0 0 0 0 0 0 ];
Traffic[0]class1Average hops = 1 (8459 samples)
traffic_manager/hop_stats_freq = [ 0 8459 0 0 0 0 0 0 0 0 0 0 0 0 0 0 0 0 0 0 ];
=======Traffic[1]class0 ======
Traffic[1]class0Overall average latency = 11.2111 (1 samples)
Traffic[1]class0Overall average accepted rate = 0.0549869 (1 samples)
Traffic[1]class0Overall min accepted rate = 0 (1 samples)
traffic_manager/latency_stat_0_freq = [ 0 0 78 2 2 2574 812 235 435 598 284 130 104 149 214 112 1286 91 55 73 76 597 28 28 31 39 207 12 13 18 8 70 5 5 6 6 41 1 2 2 3 10 2 5 1 0 3 0 0 0 0 1 1 1 1 0 0 0 0 1 0 1 0 0 0 0 0 0 0 0 0 0 0 0 0 0 0 0 0 0 0 0 0 0 0 0 0 0 0 0 0 0 0 0 0 0 0 0 0 0 0 0 0 0 0 0 0 0 0 0 0 0 0 0 0 0 0 0 0 0 0 0 0 0 0 0 0 0 0 0 0 0 0 0 0 0 0 0 0 0 0 0 0 0 0 0 0 0 0 0 0 0 0 0 0 0 0 0 0 0 0 0 0 0 0 0 0 0 0 0 0 0 0 0 0 0 0 0 0 0 0 0 0 0 0 0 0 0 0 0 0 0 0 0 0 0 0 0 0 0 0 0 0 0 0 0 0 0 0 0 0 0 0 0 0 0 0 0 0 0 0 0 0 0 0 0 0 0 0 0 0 0 0 0 0 0 0 0 0 0 0 0 0 0 0 0 0 0 0 0 0 0 0 0 0 0 0 0 0 0 0 0 0 0 0 0 0 0 0 0 0 0 0 0 0 0 0 0 0 0 0 0 0 0 0 0 0 0 0 0 0 0 0 0 0 0 0 0 0 0 0 0 0 0 0 0 0 0 0 0 0 0 0 0 0 0 0 0 0 0 0 0 0 0 0 0 0 0 0 0 0 0 0 0 0 0 0 0 0 0 0 0 0 0 0 0 0 0 0 0 0 0 0 0 0 0 0 0 0 0 0 0 0 0 0 0 0 0 0 0 0 0 0 0 0 0 0 0 0 0 0 0 0 0 0 0 0 0 0 0 0 0 0 0 0 0 0 0 0 0 0 0 0 0 0 0 0 0 0 0 0 0 0 0 0 0 0 0 0 0 0 0 0 0 0 0 0 0 0 0 0 0 0 0 0 0 0 0 0 0 0 0 0 0 0 0 0 0 0 0 0 0 0 0 0 0 0 0 0 0 0 0 0 0 0 0 0 0 0 0 0 0 0 0 0 0 0 0 0 0 0 0 0 0 0 0 0 0 0 0 0 0 0 0 0 0 0 0 0 0 0 0 0 0 0 0 0 0 0 0 0 0 0 0 0 0 0 0 0 0 0 0 0 0 0 0 0 0 0 0 0 0 0 0 0 0 0 0 0 0 0 0 0 0 0 0 0 0 0 0 0 0 0 0 0 0 0 0 0 0 0 0 0 0 0 0 0 0 0 0 0 0 0 0 0 0 0 0 0 0 0 0 0 0 0 0 0 0 0 0 0 0 0 0 0 0 0 0 0 0 0 0 0 0 0 0 0 0 0 0 0 0 0 0 0 0 0 0 0 0 0 0 0 0 0 0 0 0 0 0 0 0 0 0 0 0 0 0 0 0 0 0 0 0 0 0 0 0 0 0 0 0 0 0 0 0 0 0 0 0 0 0 0 0 0 0 0 0 0 0 0 0 0 0 0 0 0 0 0 0 0 0 0 0 0 0 0 0 0 0 0 0 0 0 0 0 0 0 0 0 0 0 0 0 0 0 0 0 0 0 0 0 0 0 0 0 0 0 0 0 0 0 0 0 0 0 0 0 0 0 0 0 0 0 0 0 0 0 0 0 0 0 0 0 0 0 0 0 0 0 0 0 0 0 0 0 0 0 0 0 0 0 0 0 0 0 0 0 0 0 0 0 0 0 0 0 0 0 0 0 0 0 0 0 0 0 0 0 0 0 0 0 0 0 0 0 0 0 0 0 0 0 0 0 0 0 0 0 0 0 0 0 0 0 0 0 0 0 0 0 0 0 0 0 0 0 0 0 0 0 0 0 0 0 0 0 0 0 0 0 0 0 0 0 0 0 0 0 0 0 0 0 0 0 0 0 0 0 0 0 0 0 0 0 0 0 0 0 0 0 0 0 0 0 0 0 0 0 0 0 0 0 0 0 0 0 0 0 0 0 0 0 0 0 0 0 0 0 0 0 0 0 0 0 0 0 0 0 0 0 0 0 0 0 0 0 0 0 0 0 0 0 0 0 0 0 0 0 0 0 0 0 0 0 0 0 0 0 0 0 0 0 0 0 0 0 0 0 0 0 0 0 0 0 0 0 0 0 0 0 0 0 0 0 0 0 0 0 0 0 0 0 0 0 0 0 0 0 0 0 0 0 0 0 0 0 0 0 0 0 0 0 0 0 0 0 0 0 0 0 ];
Traffic[1]class1Average hops = 1 (8459 samples)
traffic_manager/hop_stats_freq = [ 0 8459 0 0 0 0 0 0 0 0 0 0 0 0 0 0 0 0 0 0 ];
----------------------------END-of-Interconnect-DETAILS-------------------------

gpgpu_simulation_time = 0 days, 0 hrs, 0 min, 10 sec (10 sec)
gpgpu_simulation_rate = 550086 (inst/sec)
gpgpu_simulation_rate = 1655 (cycle/sec)

kernel '_Z26histo_intermediates_kernelP5uint2jjjP6uchar4' transfer to GPU hardware scheduler
kernel_name = _Z26histo_intermediates_kernelP5uint2jjjP6uchar4 
kernel_launch_uid = 2 
gpu_sim_cycle = 238082
gpu_sim_insn = 15893670
gpu_ipc =      66.7571
gpu_tot_sim_cycle = 254641
gpu_tot_sim_insn = 21394534
gpu_tot_ipc =      84.0184
gpu_tot_issued_cta = 0
gpu_stall_dramfull = 712908
gpu_stall_icnt2sh    = 14997
gpu_total_sim_rate=198097
Cache L1D_000:	Size = 16384 B (32 Set x 4-way x 128 byte line)
		Access = 5094, Miss = 4543 (0.892), PendingHit = 186 (0.0365)
Cache L1D_001:	Size = 16384 B (32 Set x 4-way x 128 byte line)
		Access = 3060, Miss = 2452 (0.801), PendingHit = 221 (0.0722)
Cache L1D_002:	Size = 16384 B (32 Set x 4-way x 128 byte line)
		Access = 5348, Miss = 4648 (0.869), PendingHit = 235 (0.0439)
Cache L1D_003:	Size = 16384 B (32 Set x 4-way x 128 byte line)
		Access = 4626, Miss = 3730 (0.806), PendingHit = 313 (0.0677)
Cache L1D_004:	Size = 16384 B (32 Set x 4-way x 128 byte line)
		Access = 3694, Miss = 2858 (0.774), PendingHit = 256 (0.0693)
Cache L1D_005:	Size = 16384 B (32 Set x 4-way x 128 byte line)
		Access = 5730, Miss = 4887 (0.853), PendingHit = 219 (0.0382)
Cache L1D_006:	Size = 16384 B (32 Set x 4-way x 128 byte line)
		Access = 5352, Miss = 4522 (0.845), PendingHit = 286 (0.0534)
Cache L1D_007:	Size = 16384 B (32 Set x 4-way x 128 byte line)
		Access = 5134, Miss = 4220 (0.822), PendingHit = 200 (0.039)
Cache L1D_008:	Size = 16384 B (32 Set x 4-way x 128 byte line)
		Access = 3182, Miss = 2490 (0.783), PendingHit = 265 (0.0833)
Cache L1D_009:	Size = 16384 B (32 Set x 4-way x 128 byte line)
		Access = 4416, Miss = 3398 (0.769), PendingHit = 505 (0.114)
Cache L1D_010:	Size = 16384 B (32 Set x 4-way x 128 byte line)
		Access = 5352, Miss = 4549 (0.85), PendingHit = 290 (0.0542)
Cache L1D_011:	Size = 16384 B (32 Set x 4-way x 128 byte line)
		Access = 5860, Miss = 4961 (0.847), PendingHit = 162 (0.0276)
Cache L1D_012:	Size = 16384 B (32 Set x 4-way x 128 byte line)
		Access = 3182, Miss = 2409 (0.757), PendingHit = 252 (0.0792)
Cache L1D_013:	Size = 16384 B (32 Set x 4-way x 128 byte line)
		Access = 2928, Miss = 2470 (0.844), PendingHit = 186 (0.0635)
total_dl1_misses=52137
total_dl1_accesses=62958
total_dl1_miss_rate= 0.828124
Shader 0 dynamic_warp_id issue ditsribution:
dynamic_warp_id:
0, 1, 2, 3, 4, 5, 6, 7, 8, 9, 10, 11, 12, 13, 14, 15, 16, 17, 18, 19, 20, 21, 22, 23, 24, 25, 26, 27, 28, 29, 30, 31, 32, 33, 34, 35, 36, 37, 38, 39, 40, 41, 42, 43, 44, 45, 46, 47, 48, 49, 50, 51, 52, 53, 54, 55, 56, 57, 58, 59, 60, 61, 62, 63, 64, 65, 66, 67, 68, 69, 70, 71, 72, 73, 74, 75, 76, 77, 78, 79, 80, 81, 82, 83, 84, 85, 86, 87, 88, 89, 90, 91, 92, 93, 94, 95, 96, 97, 98, 99, 100, 101, 102, 103, 104, 105, 106, 107, 108, 109, 110, 111, 112, 113, 114, 115, 116, 117, 118, 119, 120, 121, 122, 123, 124, 125, 126, 127, 128, 129, 130, 131, 132, 133, 134, 135, 136, 137, 138, 139, 140, 141, 142, 143, 
distro:
269, 201, 188, 188, 175, 175, 175, 175, 162, 162, 162, 162, 162, 162, 162, 162, 269, 201, 188, 188, 175, 175, 175, 175, 162, 162, 162, 162, 162, 162, 162, 162, 269, 201, 188, 188, 175, 175, 175, 175, 162, 162, 162, 162, 162, 162, 162, 162, 507, 507, 507, 507, 507, 507, 507, 507, 507, 507, 507, 507, 507, 507, 507, 507, 507, 507, 507, 507, 507, 507, 507, 507, 507, 507, 507, 507, 507, 507, 507, 507, 507, 507, 507, 507, 507, 507, 507, 507, 507, 507, 507, 507, 507, 507, 507, 507, 507, 507, 507, 507, 507, 507, 507, 507, 507, 507, 507, 507, 507, 507, 507, 507, 507, 507, 507, 507, 507, 507, 507, 507, 507, 507, 507, 507, 507, 507, 507, 507, 507, 507, 507, 507, 507, 507, 507, 507, 507, 507, 507, 507, 507, 507, 507, 507, 
gpgpu_n_tot_thrd_icount = 22693376
gpgpu_n_tot_w_icount = 709168
gpgpu_n_icache_hits = 368800
gpgpu_n_icache_misses = 16533
gpgpu_n_l1dcache_read_hits = 7245
gpgpu_n_l1dcache_read_misses = 55713
gpgpu_n_l1dcache_write_accesses = 154440
gpgpu_n_l1dcache_wirte_misses = 154440
gpgpu_n_tcache_hits = 0
gpgpu_n_tcache_misses = 0
gpgpu_n_ccache_hits = 55728
gpgpu_n_ccache_misses = 448
gpgpu_n_stall_shd_mem = 2680389
gpgpu_n_mem_read_local = 0
gpgpu_n_mem_write_local = 0
gpgpu_n_mem_read_global = 52265
gpgpu_n_mem_write_global = 154440
gpgpu_n_mem_texture = 0
gpgpu_n_mem_const = 14
gpgpu_n_load_insn  = 1553984
gpgpu_n_store_insn = 2071680
gpgpu_n_shmem_insn = 782208
gpgpu_n_tex_insn = 0
gpgpu_n_const_mem_insn = 0
gpgpu_n_param_mem_insn = 3498476
gpgpu_n_shmem_bkconflict = 0
gpgpu_n_cache_bkconflict = 0
gpgpu_n_intrawarp_mshr_merge = 0
gpgpu_n_cmem_portconflict = 3059
gpgpu_stall_shd_mem[c_mem][bk_conf] = 3059
gpgpu_stall_shd_mem[c_mem][mshr_rc] = 0
gpgpu_stall_shd_mem[c_mem][icnt_rc] = 0
gpgpu_stall_shd_mem[t_mem][mshr_rc] = 0
gpgpu_stall_shd_mem[t_mem][icnt_rc] = 0
gpgpu_stall_shd_mem[s_mem][bk_conf] = 0
gpgpu_stall_shd_mem[gl_mem][bk_conf] = 0
gpgpu_stall_shd_mem[gl_mem][coal_stall] = 2677330
gpgpu_stall_shd_mem[g_mem_ld][mshr_rc] = 0
gpgpu_stall_shd_mem[g_mem_ld][icnt_rc] = 0
gpgpu_stall_shd_mem[g_mem_ld][wb_icnt_rc] = 0
gpgpu_stall_shd_mem[g_mem_ld][wb_rsrv_fail] = 0
gpgpu_stall_shd_mem[g_mem_st][mshr_rc] = 0
gpgpu_stall_shd_mem[g_mem_st][icnt_rc] = 0
gpgpu_stall_shd_mem[g_mem_st][wb_icnt_rc] = 0
gpgpu_stall_shd_mem[g_mem_st][wb_rsrv_fail] = 0
gpgpu_stall_shd_mem[l_mem_ld][mshr_rc] = 0
gpgpu_stall_shd_mem[l_mem_ld][icnt_rc] = 0
gpgpu_stall_shd_mem[l_mem_ld][wb_icnt_rc] = 0
gpgpu_stall_shd_mem[l_mem_ld][wb_rsrv_fail] = 0
gpgpu_stall_shd_mem[l_mem_st][mshr_rc] = 0
gpgpu_stall_shd_mem[l_mem_st][icnt_rc] = 0
gpgpu_stall_shd_mem[l_mem_ld][wb_icnt_rc] = 0
gpgpu_stall_shd_mem[l_mem_ld][wb_rsrv_fail] = 0
gpu_reg_bank_conflict_stalls = 0
Warp Occupancy Distribution:
Stall:4185336	W0_Idle:1047448	W0_Scoreboard:123132	W1:1472	W2:512	W3:0	W4:512	W5:0	W6:0	W7:1088	W8:512	W9:0	W10:0	W11:0	W12:0	W13:0	W14:0	W15:0	W16:512	W17:0	W18:32955	W19:0	W20:0	W21:0	W22:0	W23:0	W24:0	W25:0	W26:0	W27:0	W28:0	W29:0	W30:0	W31:0	W32:671605
maxmrqlatency = 612 
maxdqlatency = 0 
maxmflatency = 2155 
averagemflatency = 749 
max_icnt2mem_latency = 4147 
max_icnt2sh_latency = 254640 
mrq_lat_table:50066 	4056 	3919 	6402 	23881 	47864 	63328 	40260 	7030 	39 	0 	0 	0 	0 	0 	0 	0 	0 	0 	0 	0 	0 	0 	0 	0 	0 	0 	0 	0 	0 	0 	0 	
dq_lat_table:0 	0 	0 	0 	0 	0 	0 	0 	0 	0 	0 	0 	0 	0 	0 	0 	0 	0 	0 	0 	0 	0 	0 	0 	0 	0 	0 	0 	0 	0 	0 	0 	
mf_lat_table:0 	0 	0 	0 	0 	0 	536 	6371 	28387 	141984 	29440 	1 	0 	0 	0 	0 	0 	0 	0 	0 	0 	0 	0 	0 	0 	0 	0 	0 	0 	0 	0 	0 	
icnt2mem_lat_table:192 	6087 	1593 	3123 	18254 	32786 	23825 	29949 	60337 	31324 	395 	46 	1 	0 	0 	0 	0 	0 	0 	0 	0 	0 	0 	0 	
icnt2sh_lat_table:78 	43165 	5943 	2921 	172 	0 	0 	0 	0 	0 	0 	0 	0 	0 	12343 	21457 	40345 	80295 	0 	0 	0 	0 	0 	0 	
mf_lat_pw_table:0 	0 	0 	0 	0 	0 	6 	8 	31 	452 	4 	0 	0 	0 	0 	0 	0 	0 	0 	0 	0 	0 	0 	0 	0 	0 	0 	0 	0 	0 	0 	0 	
maximum concurrent accesses to same row:
dram[0]:        21        21        36        19        26        31        26        40        40        24        24        21        49        22        26        48 
dram[1]:        21        19        43        25        26        25        23        41        43        28        30        20        60        24        23        39 
dram[2]:        32        20        51        25        22        25        23        41        26        29        28        21        43        21        26        38 
dram[3]:        26        22        39        32        18        24        21        45        33        25        26        21        31        20        26        23 
dram[4]:        34        22        60        24        26        27        23        47        23        34        20        30        52        21        31        33 
maximum service time to same row:
dram[0]:      4066      7937      7494      7938     14727      7191      7737     10075      8652      3617     10048      6328      4174      7303      7001      6074 
dram[1]:      4361     10803      7699      5872     11065      7228      8970     10092     10257      2270     10061      6282      4269      7287      6318      6098 
dram[2]:      5985      8132      8065      6559     15940      7249      9068     10041      6370      2410     10084      6015      4262      7069      5892      3993 
dram[3]:      9654      9551      8117      7423     14661      7226      2601     10040      6317      2966     10084      5869      2572      7138      5912      3991 
dram[4]:     12011     10888      9031      4259     11385      7529      8577     10076      6633      3034     10049      6317      5391      7187      5606      4418 
average row accesses per activate:
dram[0]:  3.948925  4.113388  4.286944  4.351470  4.247682  4.305177  3.948652  4.160950  4.167539  3.891995  4.025674  4.072682  3.984655  4.108037  4.338028  4.057693 
dram[1]:  3.916335  4.128066  4.068306  4.341142  4.133075  4.184697  3.873418  4.206077  4.109961  4.001309  4.162199  4.073418  3.927573  4.043081  4.223129  4.049383 
dram[2]:  3.690088  4.044000  4.109439  4.282421  4.244063  4.164258  3.990897  4.278155  4.286104  3.924165  4.096053  4.114796  4.024740  4.024516  4.214674  4.043419 
dram[3]:  3.861619  4.046543  4.080163  4.237823  4.285141  4.299320  4.127717  4.342975  4.462305  4.109626  4.065360  4.019950  4.010349  4.019305  4.007752  4.059864 
dram[4]:  3.953146  4.056300  4.159218  4.489329  4.386831  4.471510  4.313117  4.390821  4.350757  4.049268  4.160478  4.173969  4.029831  3.938209  4.206200  4.162465 
average row locality = 246845/59851 = 4.124325
number of total memory accesses made:
dram[0]:         0         0         0         0         0         0         0         0         0         0         0         0         0         0         0         0 
dram[1]:         0         0         0         0         0         0         0         0         0         0         0         0         0         0         0         0 
dram[2]:         0         0         0         0         0         0         0         0         0         0         0         0         0         0         0         0 
dram[3]:         0         0         0         0         0         0         0         0         0         0         0         0         0         0         0         0 
dram[4]:         0         0         0         0         0         0         0         0         0         0         0         0         0         0         0         0 
total accesses: 0
min_bank_accesses = 0!
min_chip_accesses = 0!
number of total read accesses:
dram[0]:      1239      1287      1261      1229      1317      1305      1251      1292      1310      1264      1300      1359      1292      1276      1306      1258 
dram[1]:      1242      1304      1268      1235      1318      1311      1241      1304      1305      1252      1287      1341      1277      1266      1308      1257 
dram[2]:      1242      1306      1277      1239      1323      1305      1237      1286      1287      1249      1287      1343      1275      1277      1315      1273 
dram[3]:      1254      1305      1278      1225      1314      1293      1223      1282      1287      1262      1291      1352      1285      1285      1320      1281 
dram[4]:      1249      1292      1258      1210      1308      1290      1235      1292      1301      1254      1307      1356      1290      1285      1327      1269 
total reads: 102643
bank skew: 1359/1210 = 1.12
chip skew: 20546/20516 = 1.00
number of total write accesses:
dram[0]:      1699      1724      1727      1730      1890      1855      1825      1862      1874      1799      1836      1891      1824      1842      1774      1696 
dram[1]:      1707      1726      1710      1730      1881      1861      1819      1880      1872      1805      1818      1877      1814      1831      1796      1695 
dram[2]:      1699      1727      1727      1733      1894      1864      1832      1867      1859      1804      1826      1883      1816      1842      1787      1707 
dram[3]:      1704      1738      1725      1733      1887      1867      1815      1871      1850      1812      1819      1872      1815      1838      1782      1703 
dram[4]:      1704      1734      1720      1735      1890      1849      1823      1865      1862      1787      1830      1883      1817      1838      1794      1703 
total reads: 144202
bank skew: 1894/1695 = 1.12
chip skew: 28867/28822 = 1.00
average mf latency per bank:
dram[0]:        621       624       626       630       621       632       638       617       619       635       623       622       634       635       626       639
dram[1]:        628       640       638       631       622       640       656       625       626       631       629       637       645       637       632       634
dram[2]:        646       646       630       643       624       637       653       628       625       650       638       642       647       636       640       644
dram[3]:        632       620       620       627       623       633       640       636       618       637       621       633       634       639       626       633
dram[4]:        600       599       603       617       594       616       619       603       592       622       606       604       614       614       590       610
maximum mf latency per bank:
dram[0]:       1876      1649      1710      1732      1573      1689      1698      1694      1857      1557      1900      1604      1868      1607      1677      1888
dram[1]:       1722      1916      1558      1523      1655      2042      1699      1797      1717      1634      1566      1608      2002      1636      1560      1721
dram[2]:       1778      2155      1532      1712      1673      1757      1648      1755      1572      1662      1527      1883      1953      1813      1809      2001
dram[3]:       1809      2025      1630      1558      1672      1698      1782      1811      1789      1588      1667      1716      1684      1754      1648      1618
dram[4]:       1547      1638      1519      1620      1544      1678      1635      1903      1718      1585      1512      1651      1865      1617      1489      1662

Number of Memory Banks Accessed per Memory Operation per Warp (from 0):
0	0	0	0	0	0	0	0	0	0	0	0	0	0	0	0	0	0	0	0	0	0	0	0	0	0	0	0	0	0	0	0	0	0	0	0	0	0	0	0	0	0	0	0	0	0	0	0	0	0	0	0	0	0	0	0	0	0	0	0	0	0	0	0	0	0	0	0	0	0	0	0	0	0	0	0	0	0	0	0	
Average # of Memory Banks Accessed per Memory Operation per Warp=-nan

position of mrq chosen
0	0	0	0	0	0	0	0	0	0	0	0	0	0	0	0	

average position of mrq chosen = -nan
gpgpu_l2_write_miss = 0
gpgpu_l2_write_access = 0
gpgpu_l2_read_miss = 0
gpgpu_l2_read_access = 0
Cache L2_bank_000:
MSHR contents

DRAM[0]: 16 bks, busW=4 BL=8 CL=12, tRRD=2 tCCD=6, tRCD=12 tRAS=28 tRP=12 tRC=40
n_cmd=254641 n_nop=159262 n_act=11987 n_pre=11971 n_req=49394 n_rd=41092 n_write=30329 bw_util=0.561
n_activity=240248 dram_eff=0.5946
bk0: 2478a 179093i bk1: 2574a 176329i bk2: 2522a 173365i bk3: 2458a 175065i bk4: 2634a 177003i bk5: 2610a 171724i bk6: 2502a 173381i bk7: 2584a 174787i bk8: 2620a 170776i bk9: 2528a 167159i bk10: 2600a 171173i bk11: 2718a 166261i bk12: 2584a 161727i bk13: 2552a 159183i bk14: 2612a 145966i bk15: 2516a 107613i 
dram_util_bins: 0 0 0 0 0 0 0 0 0 0
dram_eff_bins: 0 0 0 0 0 0 0 0 0 0
mrqq: max=16 avg=13.9478
Cache L2_bank_001:
MSHR contents

DRAM[1]: 16 bks, busW=4 BL=8 CL=12, tRRD=2 tCCD=6, tRCD=12 tRAS=28 tRP=12 tRC=40
n_cmd=254641 n_nop=159165 n_act=12072 n_pre=12056 n_req=49338 n_rd=41032 n_write=30316 bw_util=0.5604
n_activity=240683 dram_eff=0.5929
bk0: 2484a 180339i bk1: 2608a 176843i bk2: 2536a 174345i bk3: 2470a 174899i bk4: 2636a 177262i bk5: 2622a 172699i bk6: 2482a 173153i bk7: 2608a 174954i bk8: 2610a 171576i bk9: 2504a 168465i bk10: 2574a 171837i bk11: 2682a 167252i bk12: 2554a 163590i bk13: 2532a 159516i bk14: 2616a 146979i bk15: 2514a 108552i 
dram_util_bins: 0 0 0 0 0 0 0 0 0 0
dram_eff_bins: 0 0 0 0 0 0 0 0 0 0
mrqq: max=16 avg=13.959
Cache L2_bank_002:
MSHR contents

DRAM[2]: 16 bks, busW=4 BL=8 CL=12, tRRD=2 tCCD=6, tRCD=12 tRAS=28 tRP=12 tRC=40
n_cmd=254641 n_nop=159126 n_act=12070 n_pre=12054 n_req=49388 n_rd=41042 n_write=30349 bw_util=0.5607
n_activity=240939 dram_eff=0.5926
bk0: 2484a 178851i bk1: 2612a 176511i bk2: 2554a 174256i bk3: 2478a 175026i bk4: 2646a 177460i bk5: 2610a 172405i bk6: 2474a 173308i bk7: 2572a 174149i bk8: 2574a 171237i bk9: 2498a 168711i bk10: 2574a 173279i bk11: 2686a 166315i bk12: 2550a 162174i bk13: 2554a 160685i bk14: 2630a 146833i bk15: 2546a 107909i 
dram_util_bins: 0 0 0 0 0 0 0 0 0 0
dram_eff_bins: 0 0 0 0 0 0 0 0 0 0
mrqq: max=16 avg=14.0499
Cache L2_bank_003:
MSHR contents

DRAM[3]: 16 bks, busW=4 BL=8 CL=12, tRRD=2 tCCD=6, tRCD=12 tRAS=28 tRP=12 tRC=40
n_cmd=254641 n_nop=159332 n_act=11973 n_pre=11957 n_req=49368 n_rd=41074 n_write=30305 bw_util=0.5606
n_activity=240859 dram_eff=0.5927
bk0: 2508a 180578i bk1: 2610a 177888i bk2: 2556a 174544i bk3: 2450a 174882i bk4: 2628a 176850i bk5: 2586a 173007i bk6: 2446a 174259i bk7: 2564a 174879i bk8: 2574a 171032i bk9: 2524a 168743i bk10: 2582a 171754i bk11: 2704a 167366i bk12: 2570a 162090i bk13: 2570a 160543i bk14: 2640a 147922i bk15: 2562a 108803i 
dram_util_bins: 0 0 0 0 0 0 0 0 0 0
dram_eff_bins: 0 0 0 0 0 0 0 0 0 0
mrqq: max=16 avg=13.9158
Cache L2_bank_004:
MSHR contents

DRAM[4]: 16 bks, busW=4 BL=8 CL=12, tRRD=2 tCCD=6, tRCD=12 tRAS=28 tRP=12 tRC=40
n_cmd=254641 n_nop=159775 n_act=11752 n_pre=11736 n_req=49357 n_rd=41046 n_write=30332 bw_util=0.5606
n_activity=240421 dram_eff=0.5938
bk0: 2498a 180960i bk1: 2584a 177791i bk2: 2516a 175285i bk3: 2420a 175987i bk4: 2616a 177299i bk5: 2580a 172175i bk6: 2470a 174571i bk7: 2584a 175152i bk8: 2602a 171823i bk9: 2508a 169755i bk10: 2614a 172524i bk11: 2712a 166596i bk12: 2580a 163124i bk13: 2570a 159673i bk14: 2654a 147516i bk15: 2538a 110279i 
dram_util_bins: 0 0 0 0 0 0 0 0 0 0
dram_eff_bins: 0 0 0 0 0 0 0 0 0 0
mrqq: max=16 avg=13.7892
Cache L2_bank_000:	Size = 131072 B (64 Set x 16-way x 128 byte line)
		Access = 41572, Miss = 20546 (0.494), PendingHit = 16235 (0.391)
Cache L2_bank_001:	Size = 131072 B (64 Set x 16-way x 128 byte line)
		Access = 41530, Miss = 20516 (0.494), PendingHit = 16211 (0.39)
Cache L2_bank_002:	Size = 131072 B (64 Set x 16-way x 128 byte line)
		Access = 41549, Miss = 20521 (0.494), PendingHit = 16249 (0.391)
Cache L2_bank_003:	Size = 131072 B (64 Set x 16-way x 128 byte line)
		Access = 41678, Miss = 20537 (0.493), PendingHit = 16228 (0.389)
Cache L2_bank_004:	Size = 131072 B (64 Set x 16-way x 128 byte line)
		Access = 41583, Miss = 20523 (0.494), PendingHit = 16220 (0.39)
L2 Cache Total Miss Rate = 0.494

icnt_total_pkts_mem_to_simt=421388
icnt_total_pkts_simt_to_mem=362352

LD_mem_lat_dist  0 0 0 0 0 0 0 0 0 0 0 0 0 0 0 0 0 0 0 0 0 0 0 0 0 0 0
ST_mem_lat_dist  0 0 0 0 0 0 0 0 0 0 0 0 0 0 0 0 0 0 0 0 0 0 0 0 0 0 0
Traffic 0 Stat
%=================================
% Average latency = 284.008
% Accepted packets = 0 at node 0 (avg = 0.0323138)
lat(3) = 284.008;
thru(3,:) = [ 0 0 0 0 0 0 0 0 0 0 0 0 0 0 0.14867 0.148579 0.148611 0.14864 0.148718 0 0 0 0 ];
% latency change    = 0.960525
% throughput change = 0.701651
Traffic 1 Stat
%=================================
% Average latency = 2.21961
% Accepted packets = 0 at node 14 (avg = 0.0346525)
lat(4) = 2.21961;
thru(4,:) = [ 0.0747664 0.0364854 0.0752809 0.0603365 0.0367899 0.0732333 0.0738844 0.0608195 0.0369474 0.0475551 0.0740314 0.0733593 0.0361389 0.037378 0 0 0 0 0 0 0 0 0 ];
% latency change    = 126.954
% throughput change = 0.0674879
----------------------------Interconnect-DETAILS---------------------------------=======Traffic[0]class0 ======
Traffic[0]class0Overall average latency = 170.976 (2 samples)
Traffic[0]class0Overall average accepted rate = 0.0217937 (2 samples)
Traffic[0]class0Overall min accepted rate = 0 (2 samples)
traffic_manager/latency_stat_0_freq = [ 0 1812 1870 333 264 197 172 169 178 170 166 202 224 290 383 487 1881 2547 1546 1733 1661 1925 1800 1870 1951 2059 1949 2019 1905 2019 1901 1924 1820 1814 1752 1780 1711 1599 1590 1646 1607 1496 1408 1469 1393 1297 1381 1276 1248 1219 1136 1114 1118 1051 1033 1015 970 945 923 959 914 878 818 846 821 767 674 695 652 670 678 630 627 639 569 594 592 548 553 566 520 542 573 467 474 477 454 472 482 460 394 441 385 417 386 385 343 365 384 373 317 358 327 313 294 317 290 302 241 254 283 272 246 274 250 246 243 245 240 202 211 235 207 218 221 212 231 206 196 217 183 220 197 210 170 208 202 195 193 184 189 166 174 196 180 166 200 200 183 179 155 179 197 182 177 177 157 175 195 170 189 162 193 197 179 189 180 188 201 181 175 162 180 177 173 170 172 183 159 156 179 191 166 177 202 161 154 171 168 154 182 169 184 162 174 173 160 151 149 148 164 147 167 154 156 155 154 129 160 178 159 141 164 154 154 145 164 132 143 136 155 153 126 166 154 151 164 144 158 179 176 161 144 142 153 150 150 158 128 152 122 168 161 175 139 140 159 145 161 164 155 164 134 168 159 151 141 135 123 122 151 172 140 141 139 134 141 114 141 114 141 156 142 126 133 136 151 133 132 109 138 122 125 121 132 117 155 132 125 136 118 136 124 119 116 128 119 137 130 120 129 124 128 141 129 120 140 111 116 99 115 109 157 112 124 119 110 110 113 106 124 138 109 130 124 115 115 123 122 127 113 110 124 113 133 123 126 113 95 100 111 115 124 117 108 117 122 91 121 94 120 126 126 116 116 125 109 117 109 109 116 115 127 110 102 113 112 142 97 119 94 102 115 117 114 104 117 112 105 114 107 112 106 130 117 118 104 125 110 122 106 109 120 115 112 114 97 131 124 128 133 125 109 120 108 145 115 141 105 129 109 115 135 107 132 117 111 96 87 116 103 114 128 121 95 117 96 115 103 92 80 94 95 106 105 111 93 95 101 107 96 95 117 100 117 105 77 83 81 102 82 115 100 97 85 98 88 80 98 116 108 95 112 113 109 105 128 101 109 133 115 116 124 113 97 111 117 125 129 117 112 139 118 107 135 94 101 97 102 107 114 103 115 100 95 95 92 96 107 96 96 100 109 100 104 81 106 92 88 107 84 82 69 105 87 96 79 106 83 104 89 102 105 85 91 109 120 88 101 92 102 88 107 105 99 95 104 117 82 109 110 101 83 89 89 109 110 85 92 93 110 97 93 97 104 109 96 58 100 101 101 104 82 81 94 86 77 81 94 79 98 93 89 79 91 83 81 105 83 73 64 95 88 72 84 91 82 71 63 89 98 102 83 100 85 103 95 85 76 73 92 78 84 92 86 69 76 84 74 104 80 87 94 90 83 96 72 69 74 73 82 84 91 96 84 85 86 81 77 89 63 70 80 80 66 75 70 76 70 93 77 79 91 69 85 74 90 71 81 84 72 80 89 66 89 93 90 93 77 64 90 78 81 90 81 69 85 77 86 76 79 87 71 72 95 78 65 83 83 80 69 82 55 71 78 67 64 70 66 91 82 70 82 70 72 94 86 81 65 82 74 84 80 66 64 97 87 85 83 85 63 68 85 74 84 68 81 62 86 62 86 63 85 66 85 67 65 55 73 55 54 68 54 65 68 71 67 66 65 65 57 76 61 79 45 67 56 81 56 71 53 64 66 58 54 75 49 56 70 82 45 70 64 63 80 54 68 67 65 63 55 52 55 47 42 73 71 78 60 57 68 65 70 39 53 65 78 56 60 51 64 62 62 56 61 55 60 53 46 64 43 53 51 48 48 60 62 65 72 52 59 51 46 48 47 55 57 49 35 55 42 56 52 59 58 66 39 49 48 41 47 44 42 55 55 56 51 57 57 57 41 60 51 47 44 53 59 59 49 52 57 66 67 63 42 62 45 50 40 60 70 58 53 57 68 65 41 45 50 56 42 67 54 34 63 62 54 52 60 57 45 59 50 52 49 66 77 72 67 59 42 55 28 46 45 45 48 49 31 51 44 56 41 47 46 56 55 49 37 44 43 51 63 51 43 43 45 43 42 56 33 52 47 54 43 35 38 40 32 45 32 53 38 47 49 49 44 43 31 37 54 43 47 40 38 42 44 67 44 44 54 57 52 50 63 50 55 68 43 48 45 58 56 40 37 51 41 56 46 45 43 49 43 45 29 38 37 44 40 42 37 36 39 45 30 51 38 49 38 41 48 54 40 45 43 41 46 53 34 11001 ];
Traffic[0]class1Average hops = 1 (207912 samples)
traffic_manager/hop_stats_freq = [ 0 207912 0 0 0 0 0 0 0 0 0 0 0 0 0 0 0 0 0 0 ];
=======Traffic[1]class0 ======
Traffic[1]class0Overall average latency = 6.71537 (2 samples)
Traffic[1]class0Overall average accepted rate = 0.0448197 (2 samples)
Traffic[1]class0Overall min accepted rate = 0 (2 samples)
traffic_manager/latency_stat_0_freq = [ 0 139731 6583 1693 2670 36945 6332 1066 1632 904 888 304 156 139 107 81 96 37 20 12 16 8 11 4 7 1 1 2 2 0 0 4 0 0 0 0 1 0 0 0 0 0 0 0 0 0 0 0 0 0 0 0 0 0 0 0 0 0 0 0 0 0 0 0 0 0 0 0 0 0 0 0 0 0 0 0 0 0 0 0 0 0 0 0 0 0 0 0 0 0 0 0 0 0 0 0 0 0 0 0 0 0 0 0 0 0 0 0 0 0 0 0 0 0 0 0 0 0 0 0 0 0 0 0 0 0 0 0 0 0 0 0 0 0 0 0 0 0 0 0 0 0 0 0 0 0 0 0 0 0 0 0 0 0 0 0 0 0 0 0 0 0 0 0 0 0 0 0 0 0 0 0 0 0 0 0 0 0 0 0 0 0 0 0 0 0 0 0 0 0 0 0 0 0 0 0 0 0 0 0 0 0 0 0 0 0 0 0 0 0 0 0 0 0 0 0 0 0 0 0 0 0 0 0 0 0 0 0 0 0 0 0 0 0 0 0 0 0 0 0 0 0 0 0 0 0 0 0 0 0 0 0 0 0 0 0 0 0 0 0 0 0 0 0 0 0 0 0 0 0 0 0 0 0 0 0 0 0 0 0 0 0 0 0 0 0 0 0 0 0 0 0 0 0 0 0 0 0 0 0 0 0 0 0 0 0 0 0 0 0 0 0 0 0 0 0 0 0 0 0 0 0 0 0 0 0 0 0 0 0 0 0 0 0 0 0 0 0 0 0 0 0 0 0 0 0 0 0 0 0 0 0 0 0 0 0 0 0 0 0 0 0 0 0 0 0 0 0 0 0 0 0 0 0 0 0 0 0 0 0 0 0 0 0 0 0 0 0 0 0 0 0 0 0 0 0 0 0 0 0 0 0 0 0 0 0 0 0 0 0 0 0 0 0 0 0 0 0 0 0 0 0 0 0 0 0 0 0 0 0 0 0 0 0 0 0 0 0 0 0 0 0 0 0 0 0 0 0 0 0 0 0 0 0 0 0 0 0 0 0 0 0 0 0 0 0 0 0 0 0 0 0 0 0 0 0 0 0 0 0 0 0 0 0 0 0 0 0 0 0 0 0 0 0 0 0 0 0 0 0 0 0 0 0 0 0 0 0 0 0 0 0 0 0 0 0 0 0 0 0 0 0 0 0 0 0 0 0 0 0 0 0 0 0 0 0 0 0 0 0 0 0 0 0 0 0 0 0 0 0 0 0 0 0 0 0 0 0 0 0 0 0 0 0 0 0 0 0 0 0 0 0 0 0 0 0 0 0 0 0 0 0 0 0 0 0 0 0 0 0 0 0 0 0 0 0 0 0 0 0 0 0 0 0 0 0 0 0 0 0 0 0 0 0 0 0 0 0 0 0 0 0 0 0 0 0 0 0 0 0 0 0 0 0 0 0 0 0 0 0 0 0 0 0 0 0 0 0 0 0 0 0 0 0 0 0 0 0 0 0 0 0 0 0 0 0 0 0 0 0 0 0 0 0 0 0 0 0 0 0 0 0 0 0 0 0 0 0 0 0 0 0 0 0 0 0 0 0 0 0 0 0 0 0 0 0 0 0 0 0 0 0 0 0 0 0 0 0 0 0 0 0 0 0 0 0 0 0 0 0 0 0 0 0 0 0 0 0 0 0 0 0 0 0 0 0 0 0 0 0 0 0 0 0 0 0 0 0 0 0 0 0 0 0 0 0 0 0 0 0 0 0 0 0 0 0 0 0 0 0 0 0 0 0 0 0 0 0 0 0 0 0 0 0 0 0 0 0 0 0 0 0 0 0 0 0 0 0 0 0 0 0 0 0 0 0 0 0 0 0 0 0 0 0 0 0 0 0 0 0 0 0 0 0 0 0 0 0 0 0 0 0 0 0 0 0 0 0 0 0 0 0 0 0 0 0 0 0 0 0 0 0 0 0 0 0 0 0 0 0 0 0 0 0 0 0 0 0 0 0 0 0 0 0 0 0 0 0 0 0 0 0 0 0 0 0 0 0 0 0 0 0 0 0 0 0 0 0 0 0 0 0 0 0 0 0 0 0 0 0 0 0 0 0 0 0 0 0 0 0 0 0 0 0 0 0 0 0 0 0 0 0 0 0 0 0 0 0 0 0 0 0 0 0 0 0 0 0 0 0 0 0 0 0 0 0 0 0 0 0 0 0 0 0 0 0 0 0 0 0 0 0 0 0 0 0 0 0 0 0 0 0 0 0 0 0 0 0 0 0 ];
Traffic[1]class1Average hops = 1 (207912 samples)
traffic_manager/hop_stats_freq = [ 0 207912 0 0 0 0 0 0 0 0 0 0 0 0 0 0 0 0 0 0 ];
----------------------------END-of-Interconnect-DETAILS-------------------------

gpgpu_simulation_time = 0 days, 0 hrs, 1 min, 48 sec (108 sec)
gpgpu_simulation_rate = 198097 (inst/sec)
gpgpu_simulation_rate = 2357 (cycle/sec)

kernel '_Z17histo_main_kernelP6uchar4jjjjjPjS1_S1_' transfer to GPU hardware scheduler
kernel_name = _Z17histo_main_kernelP6uchar4jjjjjPjS1_S1_ 
kernel_launch_uid = 3 
gpu_sim_cycle = 503197
gpu_sim_insn = 157206464
gpu_ipc =     312.4153
gpu_tot_sim_cycle = 757838
gpu_tot_sim_insn = 178600998
gpu_tot_ipc =     235.6717
gpu_tot_issued_cta = 0
gpu_stall_dramfull = 974410
gpu_stall_icnt2sh    = 1035437
gpu_total_sim_rate=371311
Cache L1D_000:	Size = 16384 B (32 Set x 4-way x 128 byte line)
		Access = 134574, Miss = 34593 (0.257), PendingHit = 99468 (0.739)
Cache L1D_001:	Size = 16384 B (32 Set x 4-way x 128 byte line)
		Access = 132740, Miss = 32566 (0.245), PendingHit = 99659 (0.751)
Cache L1D_002:	Size = 16384 B (32 Set x 4-way x 128 byte line)
		Access = 134828, Miss = 34714 (0.257), PendingHit = 99521 (0.738)
Cache L1D_003:	Size = 16384 B (32 Set x 4-way x 128 byte line)
		Access = 133914, Miss = 33748 (0.252), PendingHit = 99454 (0.743)
Cache L1D_004:	Size = 16384 B (32 Set x 4-way x 128 byte line)
		Access = 133102, Miss = 32906 (0.247), PendingHit = 99484 (0.747)
Cache L1D_005:	Size = 16384 B (32 Set x 4-way x 128 byte line)
		Access = 135218, Miss = 34955 (0.259), PendingHit = 99507 (0.736)
Cache L1D_006:	Size = 16384 B (32 Set x 4-way x 128 byte line)
		Access = 134896, Miss = 34604 (0.257), PendingHit = 99576 (0.738)
Cache L1D_007:	Size = 16384 B (32 Set x 4-way x 128 byte line)
		Access = 134414, Miss = 34236 (0.255), PendingHit = 99326 (0.739)
Cache L1D_008:	Size = 16384 B (32 Set x 4-way x 128 byte line)
		Access = 132726, Miss = 32556 (0.245), PendingHit = 99579 (0.75)
Cache L1D_009:	Size = 16384 B (32 Set x 4-way x 128 byte line)
		Access = 133968, Miss = 33466 (0.25), PendingHit = 99825 (0.745)
Cache L1D_010:	Size = 16384 B (32 Set x 4-way x 128 byte line)
		Access = 134768, Miss = 34583 (0.257), PendingHit = 99508 (0.738)
Cache L1D_011:	Size = 16384 B (32 Set x 4-way x 128 byte line)
		Access = 135340, Miss = 35011 (0.259), PendingHit = 99452 (0.735)
Cache L1D_012:	Size = 16384 B (32 Set x 4-way x 128 byte line)
		Access = 132782, Miss = 32489 (0.245), PendingHit = 99634 (0.75)
Cache L1D_013:	Size = 16384 B (32 Set x 4-way x 128 byte line)
		Access = 132408, Miss = 32520 (0.246), PendingHit = 99436 (0.751)
total_dl1_misses=472947
total_dl1_accesses=1875678
total_dl1_miss_rate= 0.252147
Shader 0 dynamic_warp_id issue ditsribution:
dynamic_warp_id:
0, 1, 2, 3, 4, 5, 6, 7, 8, 9, 10, 11, 12, 13, 14, 15, 16, 17, 18, 19, 20, 21, 22, 23, 24, 25, 26, 27, 28, 29, 30, 31, 32, 33, 34, 35, 36, 37, 38, 39, 40, 41, 42, 43, 44, 45, 46, 47, 48, 49, 50, 51, 52, 53, 54, 55, 56, 57, 58, 59, 60, 61, 62, 63, 64, 65, 66, 67, 68, 69, 70, 71, 72, 73, 74, 75, 76, 77, 78, 79, 80, 81, 82, 83, 84, 85, 86, 87, 88, 89, 90, 91, 92, 93, 94, 95, 96, 97, 98, 99, 100, 101, 102, 103, 104, 105, 106, 107, 108, 109, 110, 111, 112, 113, 114, 115, 116, 117, 118, 119, 120, 121, 122, 123, 124, 125, 126, 127, 128, 129, 130, 131, 132, 133, 134, 135, 136, 137, 138, 139, 140, 141, 142, 143, 144, 145, 146, 147, 148, 149, 150, 151, 152, 153, 154, 155, 156, 157, 158, 159, 160, 161, 162, 163, 164, 165, 166, 167, 168, 169, 170, 171, 172, 173, 174, 175, 176, 177, 178, 179, 180, 181, 182, 183, 184, 185, 186, 187, 188, 189, 190, 191, 192, 193, 194, 195, 196, 197, 198, 199, 200, 201, 202, 203, 204, 205, 206, 207, 208, 209, 210, 211, 212, 213, 214, 215, 216, 217, 218, 219, 220, 221, 222, 223, 224, 225, 226, 227, 228, 229, 230, 231, 232, 233, 234, 235, 236, 237, 238, 239, 240, 241, 242, 243, 244, 245, 246, 247, 248, 249, 250, 251, 252, 253, 254, 255, 256, 257, 258, 259, 260, 261, 262, 263, 264, 265, 266, 267, 268, 269, 270, 271, 272, 273, 274, 275, 276, 277, 278, 279, 280, 281, 282, 283, 284, 285, 286, 287, 288, 289, 290, 291, 292, 293, 294, 295, 296, 297, 298, 299, 300, 301, 302, 303, 304, 305, 306, 307, 308, 309, 310, 311, 312, 313, 314, 315, 316, 317, 318, 319, 320, 321, 322, 323, 324, 325, 326, 327, 328, 329, 330, 331, 332, 333, 334, 335, 336, 337, 338, 339, 340, 341, 342, 343, 344, 345, 346, 347, 348, 349, 350, 351, 352, 353, 354, 355, 356, 357, 358, 359, 360, 361, 362, 363, 364, 365, 366, 367, 
distro:
269, 201, 188, 188, 175, 175, 175, 175, 162, 162, 162, 162, 162, 162, 162, 162, 269, 201, 188, 188, 175, 175, 175, 175, 162, 162, 162, 162, 162, 162, 162, 162, 269, 201, 188, 188, 175, 175, 175, 175, 162, 162, 162, 162, 162, 162, 162, 162, 507, 507, 507, 507, 507, 507, 507, 507, 507, 507, 507, 507, 507, 507, 507, 507, 507, 507, 507, 507, 507, 507, 507, 507, 507, 507, 507, 507, 507, 507, 507, 507, 507, 507, 507, 507, 507, 507, 507, 507, 507, 507, 507, 507, 507, 507, 507, 507, 507, 507, 507, 507, 507, 507, 507, 507, 507, 507, 507, 507, 507, 507, 507, 507, 507, 507, 507, 507, 507, 507, 507, 507, 507, 507, 507, 507, 507, 507, 507, 507, 507, 507, 507, 507, 507, 507, 507, 507, 507, 507, 507, 507, 507, 507, 507, 507, 2791, 2791, 2791, 2791, 2791, 2791, 2791, 2791, 2791, 2791, 2791, 2791, 2791, 2791, 2791, 2791, 1339, 1339, 1339, 1339, 1339, 1339, 1339, 1339, 1339, 1339, 1339, 1339, 1339, 1339, 1339, 1339, 1339, 1339, 1339, 1339, 1339, 1339, 1339, 1339, 1339, 1339, 1339, 1339, 1339, 1339, 1339, 1339, 1339, 1339, 1339, 1339, 1339, 1339, 1339, 1339, 1339, 1339, 1339, 1339, 1339, 1339, 1339, 1339, 3243, 3173, 3221, 3193, 3221, 3263, 3235, 3179, 3095, 3193, 3109, 3221, 3249, 3207, 3179, 3165, 3165, 3081, 3207, 3179, 3165, 3193, 3165, 3179, 3207, 3165, 3151, 3207, 3277, 3123, 3249, 3123, 3347, 3347, 3347, 3347, 3347, 3347, 3347, 3347, 3347, 3347, 3347, 3347, 3347, 3347, 3347, 3347, 3347, 3347, 3347, 3347, 3347, 3347, 3347, 3347, 3347, 3347, 3347, 3347, 3347, 3347, 3347, 3347, 1493, 1535, 1493, 1563, 1493, 1493, 1521, 1493, 1465, 1563, 1395, 1535, 1507, 1577, 1563, 1563, 1619, 1605, 1605, 1563, 1563, 1605, 1577, 1647, 1521, 1549, 1507, 1479, 1591, 1591, 1535, 1535, 1331, 1331, 1331, 1331, 1331, 1331, 1331, 1331, 1331, 1331, 1331, 1331, 1331, 1331, 1331, 1331, 1339, 1339, 1339, 1339, 1339, 1339, 1339, 1339, 1339, 1339, 1339, 1339, 1339, 1339, 1339, 1339, 1331, 1331, 1331, 1331, 1331, 1331, 1331, 1331, 1331, 1331, 1331, 1331, 1331, 1331, 1331, 1331, 1331, 1331, 1331, 1331, 1331, 1331, 1331, 1331, 1331, 1331, 1331, 1331, 1331, 1331, 1331, 1331, 
gpgpu_n_tot_thrd_icount = 225359360
gpgpu_n_tot_w_icount = 7042480
gpgpu_n_icache_hits = 4035118
gpgpu_n_icache_misses = 19305
gpgpu_n_l1dcache_read_hits = 9302
gpgpu_n_l1dcache_read_misses = 1866376
gpgpu_n_l1dcache_write_accesses = 154440
gpgpu_n_l1dcache_wirte_misses = 154440
gpgpu_n_tcache_hits = 0
gpgpu_n_tcache_misses = 0
gpgpu_n_ccache_hits = 592688
gpgpu_n_ccache_misses = 448
gpgpu_n_stall_shd_mem = 5645755
gpgpu_n_mem_read_local = 0
gpgpu_n_mem_write_local = 0
gpgpu_n_mem_read_global = 673779
gpgpu_n_mem_write_global = 154440
gpgpu_n_mem_texture = 0
gpgpu_n_mem_const = 14
gpgpu_n_load_insn  = 33768768
gpgpu_n_store_insn = 2071680
gpgpu_n_shmem_insn = 6867968
gpgpu_n_tex_insn = 0
gpgpu_n_const_mem_insn = 0
gpgpu_n_param_mem_insn = 37863916
gpgpu_n_shmem_bkconflict = 0
gpgpu_n_cache_bkconflict = 0
gpgpu_n_intrawarp_mshr_merge = 0
gpgpu_n_cmem_portconflict = 3059
gpgpu_stall_shd_mem[c_mem][bk_conf] = 3059
gpgpu_stall_shd_mem[c_mem][mshr_rc] = 0
gpgpu_stall_shd_mem[c_mem][icnt_rc] = 0
gpgpu_stall_shd_mem[t_mem][mshr_rc] = 0
gpgpu_stall_shd_mem[t_mem][icnt_rc] = 0
gpgpu_stall_shd_mem[s_mem][bk_conf] = 95112
gpgpu_stall_shd_mem[gl_mem][bk_conf] = 0
gpgpu_stall_shd_mem[gl_mem][coal_stall] = 5547584
gpgpu_stall_shd_mem[g_mem_ld][mshr_rc] = 0
gpgpu_stall_shd_mem[g_mem_ld][icnt_rc] = 0
gpgpu_stall_shd_mem[g_mem_ld][wb_icnt_rc] = 0
gpgpu_stall_shd_mem[g_mem_ld][wb_rsrv_fail] = 0
gpgpu_stall_shd_mem[g_mem_st][mshr_rc] = 0
gpgpu_stall_shd_mem[g_mem_st][icnt_rc] = 0
gpgpu_stall_shd_mem[g_mem_st][wb_icnt_rc] = 0
gpgpu_stall_shd_mem[g_mem_st][wb_rsrv_fail] = 0
gpgpu_stall_shd_mem[l_mem_ld][mshr_rc] = 0
gpgpu_stall_shd_mem[l_mem_ld][icnt_rc] = 0
gpgpu_stall_shd_mem[l_mem_ld][wb_icnt_rc] = 0
gpgpu_stall_shd_mem[l_mem_ld][wb_rsrv_fail] = 0
gpgpu_stall_shd_mem[l_mem_st][mshr_rc] = 0
gpgpu_stall_shd_mem[l_mem_st][icnt_rc] = 0
gpgpu_stall_shd_mem[l_mem_ld][wb_icnt_rc] = 0
gpgpu_stall_shd_mem[l_mem_ld][wb_rsrv_fail] = 0
gpu_reg_bank_conflict_stalls = 0
Warp Occupancy Distribution:
Stall:6586604	W0_Idle:1633286	W0_Scoreboard:4808150	W1:234474	W2:210470	W3:181146	W4:138692	W5:82446	W6:50806	W7:38790	W8:43856	W9:57666	W10:76300	W11:92400	W12:104846	W13:108710	W14:108192	W15:93310	W16:76042	W17:54698	W18:68543	W19:20720	W20:10248	W21:4886	W22:1792	W23:658	W24:196	W25:56	W26:0	W27:0	W28:0	W29:0	W30:0	W31:0	W32:5182537
maxmrqlatency = 1312 
maxdqlatency = 0 
maxmflatency = 2155 
averagemflatency = 371 
max_icnt2mem_latency = 4147 
max_icnt2sh_latency = 254640 
mrq_lat_table:181859 	19743 	25539 	36552 	68991 	83114 	81858 	43854 	7340 	77 	5 	0 	0 	0 	0 	0 	0 	0 	0 	0 	0 	0 	0 	0 	0 	0 	0 	0 	0 	0 	0 	0 	
dq_lat_table:0 	0 	0 	0 	0 	0 	0 	0 	0 	0 	0 	0 	0 	0 	0 	0 	0 	0 	0 	0 	0 	0 	0 	0 	0 	0 	0 	0 	0 	0 	0 	0 	
mf_lat_table:0 	0 	0 	0 	0 	0 	9552 	336902 	306998 	145339 	29441 	1 	0 	0 	0 	0 	0 	0 	0 	0 	0 	0 	0 	0 	0 	0 	0 	0 	0 	0 	0 	0 	
icnt2mem_lat_table:278 	335328 	22045 	77936 	116004 	83793 	52097 	49284 	61049 	31324 	395 	46 	1 	0 	0 	0 	0 	0 	0 	0 	0 	0 	0 	0 	
icnt2sh_lat_table:78 	261615 	191753 	213789 	6556 	2 	0 	0 	0 	0 	0 	0 	0 	0 	12343 	21457 	40345 	80295 	0 	0 	0 	0 	0 	0 	
mf_lat_pw_table:0 	0 	0 	0 	0 	0 	6 	538 	504 	453 	4 	0 	0 	0 	0 	0 	0 	0 	0 	0 	0 	0 	0 	0 	0 	0 	0 	0 	0 	0 	0 	0 	
maximum concurrent accesses to same row:
dram[0]:        32        32        36        32        32        32        32        40        40        32        32        32        49        32        34        48 
dram[1]:        32        32        43        32        32        32        32        41        43        34        32        32        60        32        40        39 
dram[2]:        32        32        51        32        32        32        32        41        32        32        32        32        43        32        36        38 
dram[3]:        32        32        39        32        32        32        32        45        33        32        32        32        32        32        39        32 
dram[4]:        34        32        60        32        32        32        32        47        32        34        32        32        52        32        32        33 
maximum service time to same row:
dram[0]:     25614     25574     25391     21103     20943     20961     19011     21953     21715     21854     22023     21771     21927     22074     22068     25540 
dram[1]:     25104     25729     25462     21018     20845     20949     18840     22125     21715     21781     21892     21702     21869     22071     22147     25368 
dram[2]:     25582     25679     25620     21016     21339     21091     18876     21969     21694     21792     22037     22186     21829     22186     22071     25538 
dram[3]:     25489     25845     25637     21077     21298     20996     18905     22060     21792     21794     21969     22054     21846     22015     22084     25457 
dram[4]:     25578     25675     25683     20993     21330     20963     19014     21912     21718     21805     21905     22125     21990     21927     22127     25609 
average row accesses per activate:
dram[0]:  5.094605  5.057471  5.302908  5.351417  5.369729  5.324568  5.133186  5.229228  5.088489  5.078388  5.029496  5.076483  5.091441  5.211236  5.207270  5.115024 
dram[1]:  5.003837  5.089931  5.183544  5.294636  5.226138  5.100430  5.084733  5.255762  5.139637  5.159583  5.182563  5.145667  4.919858  5.100587  5.154844  5.116680 
dram[2]:  4.869110  5.188724  5.115504  5.311949  5.463190  5.225569  5.265306  5.354421  5.413528  5.037846  5.167656  5.191630  5.069445  5.151515  5.062922  5.211615 
dram[3]:  4.937311  5.243671  5.151800  5.390383  5.308670  5.471858  5.236981  5.472416  5.434985  5.226486  5.263794  5.059455  5.214554  5.070648  5.125853  5.199525 
dram[4]:  5.054911  5.128205  5.236465  5.513762  5.422053  5.486801  5.412773  5.386555  5.344225  5.181886  5.276644  5.175055  5.097579  5.140855  5.146008  5.196982 
average row locality = 548932/105605 = 5.197974
number of total memory accesses made:
dram[0]:         0         0         0         0         0         0         0         0         0         0         0         0         0         0         0         0 
dram[1]:         0         0         0         0         0         0         0         0         0         0         0         0         0         0         0         0 
dram[2]:         0         0         0         0         0         0         0         0         0         0         0         0         0         0         0         0 
dram[3]:         0         0         0         0         0         0         0         0         0         0         0         0         0         0         0         0 
dram[4]:         0         0         0         0         0         0         0         0         0         0         0         0         0         0         0         0 
total accesses: 0
min_bank_accesses = 0!
min_chip_accesses = 0!
number of total read accesses:
dram[0]:      4785      4844      4806      4816      5177      5156      5107      5155      5164      5097      5123      5179      5104      5083      4925      4808 
dram[1]:      4781      4864      4809      4821      5173      5172      5097      5156      5161      5079      5105      5156      5091      5084      4929      4805 
dram[2]:      4779      4867      4838      4829      5166      5168      5091      5125      5147      5084      5108      5156      5087      5096      4937      4811 
dram[3]:      4801      4858      4826      4817      5152      5155      5078      5139      5135      5101      5113      5159      5104      5092      4945      4829 
dram[4]:      4800      4834      4824      4810      5176      5139      5087      5152      5138      5100      5119      5180      5099      5101      4941      4807 
total reads: 401512
bank skew: 5180/4779 = 1.08
chip skew: 80329/80283 = 1.00
number of total write accesses:
dram[0]:      1731      1756      1759      1793      1954      1931      1869      1894      1909      1835      1868      1923      1856      1874      1808      1729 
dram[1]:      1739      1758      1743      1792      1945      1938      1864      1913      1906      1840      1850      1909      1846      1863      1829      1729 
dram[2]:      1731      1759      1761      1795      1958      1944      1875      1900      1896      1838      1858      1915      1848      1874      1822      1740 
dram[3]:      1736      1770      1758      1797      1951      1942      1861      1904      1887      1845      1851      1904      1847      1870      1816      1738 
dram[4]:      1736      1766      1753      1801      1954      1928      1863      1899      1895      1823      1862      1915      1849      1870      1826      1736 
total reads: 147420
bank skew: 1958/1729 = 1.13
chip skew: 29514/29464 = 1.00
average mf latency per bank:
dram[0]:        542       551       553       597       586       585       593       584       572       566       544       546       550       552       552       563
dram[1]:        541       550       553       592       585       587       598       588       575       557       539       549       553       550       552       556
dram[2]:        544       547       544       593       581       579       589       579       564       557       539       545       546       542       549       554
[...]
mrq_lat_table:420822 	41802 	53648 	75397 	143896 	188873 	204108 	114077 	19274 	472 	5 	0 	0 	0 	0 	0 	0 	0 	0 	0 	0 	0 	0 	0 	0 	0 	0 	0 	0 	0 	0 	0 	
dq_lat_table:0 	0 	0 	0 	0 	0 	0 	0 	0 	0 	0 	0 	0 	0 	0 	0 	0 	0 	0 	0 	0 	0 	0 	0 	0 	0 	0 	0 	0 	0 	0 	0 	
mf_lat_table:0 	0 	0 	0 	0 	0 	23500 	712811 	612995 	401976 	67324 	13 	0 	0 	0 	0 	0 	0 	0 	0 	0 	0 	0 	0 	0 	0 	0 	0 	0 	0 	0 	0 	
icnt2mem_lat_table:574 	657605 	44521 	157919 	245266 	203210 	135441 	133993 	169118 	72664 	1054 	106 	1 	0 	0 	0 	0 	0 	0 	0 	0 	0 	0 	0 	
icnt2sh_lat_table:177 	566214 	398439 	401299 	12529 	9 	0 	0 	0 	0 	0 	0 	0 	0 	12343 	21457 	40345 	80295 	0 	190225 	95287 	0 	0 	0 	
mf_lat_pw_table:0 	0 	0 	0 	0 	0 	10 	1210 	914 	1218 	11 	0 	0 	0 	0 	0 	0 	0 	0 	0 	0 	0 	0 	0 	0 	0 	0 	0 	0 	0 	0 	0 	
maximum concurrent accesses to same row:
dram[0]:        60        38        36        80        55        80        60        80        65        68        45        75        63        45        35        70 
dram[1]:        55        38        60        80        50        70        60        80        80        51        54        80        80        40        40        75 
dram[2]:        50        32        51        80        70        70        55        80        76        51        45        68        70        45        50        65 
dram[3]:        45        33        45        80        55        67        60        80        75        62        45        40        65        40        40        55 
dram[4]:        46        42        60        80        60        83        65        75        80        57        45        70        72        39        32        65 
maximum service time to same row:
dram[0]:     26205     26207     26140     21103     20943     20961     19011     22656     22660     22722     22641     22605     22659     22682     22733     26153 
dram[1]:     25104     26111     26176     21018     20845     20949     18840     22601     22567     22673     22663     22704     22758     22698     22634     26138 
dram[2]:     26241     26191     26238     21016     21339     21091     18876     22685     22630     22780     22708     22626     22621     22600     22647     26123 
dram[3]:     26247     26171     26178     21077     21298     20996     18905     22764     22625     22705     22586     22631     22717     22798     22813     26180 
dram[4]:     26225     26219     26270     20993     21330     20963     19014     22636     22548     22794     22707     22715     22649     22782     22719     26122 
average row accesses per activate:
dram[0]:  4.914323  4.802817  5.006551  4.976654  5.067266  4.991915  4.826894  5.018518  4.969156  4.824226  4.864391  4.933394  4.811000  4.703814  4.817475  4.853565 
dram[1]:  4.906512  4.871722  4.953262  4.930725  4.944882  4.846177  4.835991  5.056815  5.073194  4.962234  5.017812  4.939822  4.698451  4.799026  4.816181  4.879794 
dram[2]:  4.785332  4.818809  4.934168  4.918132  5.108886  4.906622  4.913362  5.063243  5.193405  4.909876  5.047239  4.919241  4.820012  4.824534  4.819027  4.907120 
dram[3]:  4.865452  4.816052  4.924413  4.985375  5.018126  5.040906  4.927914  5.170856  5.233450  5.035409  4.996520  4.883263  4.833282  4.779758  4.778837  4.864439 
dram[4]:  4.826819  4.967346  5.005558  5.102292  5.058842  5.122482  5.063716  5.157310  5.138592  4.986817  5.053571  4.899392  4.767169  4.745569  4.802286  4.955853 
average row locality = 1262374/255998 = 4.931187
number of total memory accesses made:
dram[0]:         0         0         0         0         0         0         0         0         0         0         0         0         0         0         0         0 
dram[1]:         0         0         0         0         0         0         0         0         0         0         0         0         0         0         0         0 
dram[2]:         0         0         0         0         0         0         0         0         0         0         0         0         0         0         0         0 
dram[3]:         0         0         0         0         0         0         0         0         0         0         0         0         0         0         0         0 
dram[4]:         0         0         0         0         0         0         0         0         0         0         0         0         0         0         0         0 
total accesses: 0
min_bank_accesses = 0!
min_chip_accesses = 0!
number of total read accesses:
dram[0]:     10229     10330     10274     10332     11017     10884     10839     10878     10967     10752     10762     10913     10771     10714     10482     10241 
dram[1]:     10239     10391     10277     10354     10996     10923     10814     10891     10972     10732     10728     10871     10742     10709     10492     10236 
dram[2]:     10242     10393     10326     10336     10997     10910     10817     10836     10931     10753     10725     10884     10730     10750     10504     10255 
dram[3]:     10247     10387     10294     10321     10990     10862     10804     10860     10944     10760     10760     10900     10742     10745     10517     10283 
dram[4]:     10238     10339     10297     10327     11000     10861     10815     10881     10937     10761     10771     10911     10754     10738     10510     10248 
total reads: 851945
bank skew: 11017/10229 = 1.08
chip skew: 170416/170367 = 1.00
number of total write accesses:
dram[0]:      4971      5015      5011      5016      5330      5170      5278      5382      5466      5139      5057      5234      5062      5072      5011      4873 
dram[1]:      4981      5028      4984      5020      5332      5176      5256      5397      5455      5167      5048      5218      5026      5051      5045      4906 
dram[2]:      4961      4979      5039      5043      5331      5169      5289      5336      5449      5155      5088      5197      5070      5060      5047      4908 
dram[3]:      4977      5034      5016      5019      5344      5158      5261      5392      5421      5167      5034      5205      5029      5076      5019      4860 
dram[4]:      4952      5025      5015      5036      5335      5157      5318      5380      5414      5127      5077      5208      5073      5060      5035      4907 
total reads: 410429
bank skew: 5466/4860 = 1.12
chip skew: 82121/82012 = 1.00
average mf latency per bank:
dram[0]:        551       557       561       602       588       594       593       596       575       566       549       555       561       558       557       566
dram[1]:        551       557       560       602       591       594       598       596       581       563       548       556       563       557       559       560
dram[2]:        553       557       558       600       590       594       595       592       575       560       551       557       562       554       558       565
dram[3]:        555       558       562       605       593       598       593       594       583       567       551       559       563       558       555       565
dram[4]:        543       544       553       600       583       589       589       586       571       559       541       548       556       551       548       555
maximum mf latency per bank:
dram[0]:       1876      1649      1710      1732      2154      1794      1836      1749      1857      1775      1900      1900      1868      1672      1807      1888
dram[1]:       1805      1916      1615      2232      1873      2042      1796      1874      1936      1634      2048      1937      2255      1965      1798      1939
dram[2]:       1804      2155      2086      1712      2108      2462      1701      1755      1712      1662      1848      1975      1953      1813      1809      2001
dram[3]:       1949      2025      1823      1681      1765      1844      1782      1811      1806      1615      1817      1718      1849      1783      1648      1836
dram[4]:       1815      1638      2227      1797      1855      1799      1734      1903      1827      1670      1670      1701      1865      1849      1883      1662

Number of Memory Banks Accessed per Memory Operation per Warp (from 0):
0	0	0	0	0	0	0	0	0	0	0	0	0	0	0	0	0	0	0	0	0	0	0	0	0	0	0	0	0	0	0	0	0	0	0	0	0	0	0	0	0	0	0	0	0	0	0	0	0	0	0	0	0	0	0	0	0	0	0	0	0	0	0	0	0	0	0	0	0	0	0	0	0	0	0	0	0	0	0	0	
Average # of Memory Banks Accessed per Memory Operation per Warp=-nan

position of mrq chosen
0	0	0	0	0	0	0	0	0	0	0	0	0	0	0	0	

average position of mrq chosen = -nan
gpgpu_l2_write_miss = 0
gpgpu_l2_write_access = 0
gpgpu_l2_read_miss = 0
gpgpu_l2_read_access = 0
Cache L2_bank_000:
MSHR contents

DRAM[0]: 16 bks, busW=4 BL=8 CL=12, tRRD=2 tCCD=6, tRCD=12 tRAS=28 tRP=12 tRC=40
n_cmd=1692379 n_nop=1157428 n_act=51550 n_pre=51534 n_req=252472 n_rd=340770 n_write=91097 bw_util=0.5104
n_activity=1427479 dram_eff=0.6051
bk0: 20458a 1402665i bk1: 20660a 1404776i bk2: 20548a 1401662i bk3: 20664a 1404170i bk4: 22034a 1406830i bk5: 21768a 1396247i bk6: 21678a 1395626i bk7: 21756a 1392677i bk8: 21934a 1383992i bk9: 21504a 1371786i bk10: 21524a 1371767i bk11: 21826a 1349086i bk12: 21542a 1320132i bk13: 21428a 1274022i bk14: 20964a 1193374i bk15: 20482a 1042827i 
dram_util_bins: 0 0 0 0 0 0 0 0 0 0
dram_eff_bins: 0 0 0 0 0 0 0 0 0 0
mrqq: max=16 avg=6.76302
Cache L2_bank_001:
MSHR contents

DRAM[1]: 16 bks, busW=4 BL=8 CL=12, tRRD=2 tCCD=6, tRCD=12 tRAS=28 tRP=12 tRC=40
n_cmd=1692379 n_nop=1157685 n_act=51447 n_pre=51431 n_req=252457 n_rd=340734 n_write=91082 bw_util=0.5103
n_activity=1429159 dram_eff=0.6043
bk0: 20478a 1403025i bk1: 20782a 1404602i bk2: 20554a 1404649i bk3: 20708a 1404756i bk4: 21992a 1407694i bk5: 21846a 1399342i bk6: 21628a 1395700i bk7: 21782a 1391734i bk8: 21944a 1384373i bk9: 21464a 1373663i bk10: 21456a 1371606i bk11: 21742a 1350372i bk12: 21484a 1322207i bk13: 21418a 1273669i bk14: 20984a 1195659i bk15: 20472a 1045067i 
dram_util_bins: 0 0 0 0 0 0 0 0 0 0
dram_eff_bins: 0 0 0 0 0 0 0 0 0 0
mrqq: max=16 avg=6.73174
Cache L2_bank_002:
MSHR contents

DRAM[2]: 16 bks, busW=4 BL=8 CL=12, tRRD=2 tCCD=6, tRCD=12 tRAS=28 tRP=12 tRC=40
n_cmd=1692379 n_nop=1158118 n_act=51222 n_pre=51206 n_req=252510 n_rd=340778 n_write=91055 bw_util=0.5103
n_activity=1428641 dram_eff=0.6045
bk0: 20484a 1403091i bk1: 20786a 1404933i bk2: 20652a 1401609i bk3: 20672a 1404617i bk4: 21994a 1409116i bk5: 21820a 1399316i bk6: 21634a 1396267i bk7: 21672a 1393089i bk8: 21862a 1386018i bk9: 21506a 1374907i bk10: 21450a 1374588i bk11: 21768a 1350105i bk12: 21460a 1321328i bk13: 21500a 1276665i bk14: 21008a 1199712i bk15: 20510a 1047722i 
dram_util_bins: 0 0 0 0 0 0 0 0 0 0
dram_eff_bins: 0 0 0 0 0 0 0 0 0 0
mrqq: max=16 avg=6.75273
Cache L2_bank_003:
MSHR contents

DRAM[3]: 16 bks, busW=4 BL=8 CL=12, tRRD=2 tCCD=6, tRCD=12 tRAS=28 tRP=12 tRC=40
n_cmd=1692379 n_nop=1158454 n_act=51039 n_pre=51023 n_req=252428 n_rd=340832 n_write=91031 bw_util=0.5104
n_activity=1429681 dram_eff=0.6041
bk0: 20494a 1404539i bk1: 20774a 1407473i bk2: 20588a 1403623i bk3: 20642a 1403684i bk4: 21980a 1407637i bk5: 21724a 1398634i bk6: 21608a 1396923i bk7: 21720a 1393159i bk8: 21888a 1384788i bk9: 21520a 1374790i bk10: 21520a 1371233i bk11: 21800a 1350591i bk12: 21484a 1323251i bk13: 21490a 1278026i bk14: 21034a 1201310i bk15: 20566a 1048147i 
dram_util_bins: 0 0 0 0 0 0 0 0 0 0
dram_eff_bins: 0 0 0 0 0 0 0 0 0 0
mrqq: max=16 avg=6.76608
Cache L2_bank_004:
MSHR contents

DRAM[4]: 16 bks, busW=4 BL=8 CL=12, tRRD=2 tCCD=6, tRCD=12 tRAS=28 tRP=12 tRC=40
n_cmd=1692379 n_nop=1159020 n_act=50743 n_pre=50727 n_req=252507 n_rd=340776 n_write=91113 bw_util=0.5104
n_activity=1427592 dram_eff=0.6051
bk0: 20476a 1403772i bk1: 20678a 1403815i bk2: 20594a 1403956i bk3: 20654a 1405688i bk4: 22000a 1407894i bk5: 21722a 1399003i bk6: 21630a 1398470i bk7: 21762a 1395114i bk8: 21874a 1386813i bk9: 21522a 1374445i bk10: 21542a 1370423i bk11: 21822a 1347305i bk12: 21508a 1320413i bk13: 21476a 1273292i bk14: 21020a 1199312i bk15: 20496a 1049496i 
dram_util_bins: 0 0 0 0 0 0 0 0 0 0
dram_eff_bins: 0 0 0 0 0 0 0 0 0 0
mrqq: max=16 avg=6.71757
Cache L2_bank_000:	Size = 131072 B (64 Set x 16-way x 128 byte line)
		Access = 364219, Miss = 170385 (0.468), PendingHit = 76605 (0.21)
Cache L2_bank_001:	Size = 131072 B (64 Set x 16-way x 128 byte line)
		Access = 364197, Miss = 170367 (0.468), PendingHit = 76557 (0.21)
Cache L2_bank_002:	Size = 131072 B (64 Set x 16-way x 128 byte line)
		Access = 364119, Miss = 170389 (0.468), PendingHit = 76732 (0.211)
Cache L2_bank_003:	Size = 131072 B (64 Set x 16-way x 128 byte line)
		Access = 364569, Miss = 170416 (0.467), PendingHit = 76464 (0.21)
Cache L2_bank_004:	Size = 131072 B (64 Set x 16-way x 128 byte line)
		Access = 364368, Miss = 170388 (0.468), PendingHit = 76620 (0.21)
L2 Cache Total Miss Rate = 0.468

icnt_total_pkts_mem_to_simt=7346756
icnt_total_pkts_simt_to_mem=2341296

LD_mem_lat_dist  0 0 0 0 0 0 0 0 0 0 0 0 0 0 0 0 0 0 0 0 0 0 0 0 0 0 0
ST_mem_lat_dist  0 0 0 0 0 0 0 0 0 0 0 0 0 0 0 0 0 0 0 0 0 0 0 0 0 0 0
Traffic 0 Stat
%=================================
% Average latency = 198.481
% Accepted packets = 0 at node 0 (avg = 0.0473356)
lat(15) = 198.481;
thru(15,:) = [ 0 0 0 0 0 0 0 0 0 0 0 0 0 0 0.217673 0.217696 0.217696 0.217788 0.217868 0 0 0 0 ];
% latency change    = 0.946085
% throughput change = 1.78861
Traffic 1 Stat
%=================================
% Average latency = 2.23092
% Accepted packets = 0 at node 14 (avg = 0.0392703)
lat(16) = 2.23092;
thru(16,:) = [ 0.063565 0.0460822 0.0652213 0.0444259 0.0444259 0.063565 0.0444259 0.0860741 0.0843604 0.0827041 0.0860166 0.0444259 0.0827041 0.0652213 0 0 0 0 0 0 0 0 0 ];
% latency change    = 87.9682
% throughput change = 0.205379
----------------------------Interconnect-DETAILS---------------------------------=======Traffic[0]class0 ======
Traffic[0]class0Overall average latency = 145.295 (8 samples)
Traffic[0]class0Overall average accepted rate = 0.0380918 (8 samples)
Traffic[0]class0Overall min accepted rate = 0 (8 samples)
traffic_manager/latency_stat_0_freq = [ 0 453 757 184 174 165 167 82 86 118 113 75 129 172 287 429 1723 1898 806 955 833 790 923 1000 863 947 957 1003 958 866 897 936 866 804 848 851 821 814 753 844 782 778 742 737 712 715 666 729 622 575 623 600 567 590 536 559 544 495 506 444 486 431 443 463 427 410 425 385 380 366 399 360 375 327 342 362 322 336 318 320 313 292 283 264 278 263 264 264 221 206 209 247 205 220 211 198 184 207 185 195 159 197 168 146 161 156 157 159 136 136 130 108 124 140 120 132 85 128 144 121 119 97 115 110 87 114 112 93 105 87 76 77 94 106 86 67 78 67 94 70 87 88 80 64 67 73 79 72 63 74 73 70 64 69 77 57 61 56 65 56 61 68 84 58 79 57 65 59 65 60 43 57 49 69 51 49 58 58 61 60 56 51 57 56 61 66 61 62 54 68 44 42 61 47 72 51 56 49 42 57 52 54 61 56 61 60 45 47 64 53 58 52 59 57 39 48 47 48 39 52 50 49 58 43 36 48 37 57 49 31 37 44 52 49 42 46 55 44 45 49 37 54 53 45 44 42 31 39 46 33 36 34 36 39 39 40 60 45 53 31 40 53 42 51 41 41 49 31 57 48 45 59 62 42 49 42 42 55 52 71 51 53 41 48 67 38 58 35 37 46 40 56 55 46 36 48 49 59 40 38 41 39 33 46 37 58 45 37 41 44 47 42 29 35 48 40 39 46 43 39 48 31 38 36 36 39 47 59 41 50 57 47 52 36 46 51 48 46 54 45 36 36 38 33 44 45 46 33 35 48 45 42 46 41 55 41 40 46 50 38 45 47 45 49 50 42 53 61 37 40 40 44 37 42 43 46 32 41 40 40 43 31 33 33 35 36 46 45 45 42 41 37 36 45 37 38 34 36 44 37 35 37 41 35 34 42 51 43 33 23 38 36 35 26 33 40 30 37 48 40 43 36 30 31 29 39 33 38 29 24 25 31 37 36 26 39 32 31 40 30 20 35 34 36 34 30 29 37 33 30 45 39 39 36 43 30 31 34 31 35 34 35 41 37 28 43 38 36 24 30 32 44 33 22 30 40 38 43 43 39 50 36 36 33 46 41 33 29 32 38 38 29 43 33 43 25 35 26 29 25 27 28 38 26 34 29 40 30 18 30 35 26 33 29 32 22 32 35 25 31 42 26 19 27 22 19 30 19 30 15 26 35 28 31 29 22 25 37 31 26 28 27 28 30 28 28 21 15 21 21 23 18 31 27 28 31 25 29 28 28 25 17 28 21 20 30 28 29 19 21 29 26 34 22 27 35 21 15 25 26 23 20 20 21 19 28 23 32 25 30 30 26 28 25 30 20 34 29 22 33 23 20 37 25 26 21 29 25 24 22 18 19 26 29 24 20 29 13 23 18 33 27 18 19 28 20 26 23 30 19 18 17 30 28 20 27 28 33 20 23 26 21 27 28 36 28 22 28 28 28 23 19 26 21 30 25 31 29 27 28 36 16 24 25 28 32 23 15 26 20 28 20 24 22 35 30 27 19 22 24 23 28 26 33 29 34 39 37 28 22 28 31 28 22 29 22 28 34 22 31 31 22 32 16 39 18 19 30 24 25 28 25 23 25 29 22 26 29 27 17 25 20 23 24 25 16 15 26 27 19 20 27 23 24 22 18 28 20 18 19 26 23 24 32 28 26 21 19 22 23 21 27 22 19 14 19 17 15 19 13 22 30 20 23 15 27 21 29 26 34 24 22 25 21 20 19 26 25 25 29 18 20 30 28 17 17 22 19 25 21 20 17 14 19 19 10 12 16 10 12 5 22 19 18 16 16 22 18 18 24 18 21 24 16 19 13 11 24 15 18 15 18 24 22 15 15 19 20 10 15 11 14 16 29 23 21 19 18 20 13 22 25 16 9 15 13 14 19 12 11 11 20 14 12 12 7 13 20 18 17 15 11 12 14 11 13 21 19 6 8 12 8 16 13 19 15 17 11 12 16 7 15 17 17 18 8 5 15 12 11 20 12 11 14 12 14 8 17 9 12 11 11 12 13 13 12 8 5 17 16 14 12 12 15 11 13 18 16 16 13 19 13 15 9 7 15 10 23 12 17 13 9 10 13 9 15 12 11 14 6 9 13 12 6 6 9 6 6 9 8 14 13 5 11 4 14 16 7 17 11 12 18 10 15 13 11 16 14 10 10 18 13 16 13 13 6 13 15 8 14 11 11 8 13 8 7 8 5 10 8 6 11 5 6 12 4 11 8 7 1659 ];
Traffic[0]class1Average hops = 1 (1821472 samples)
traffic_manager/hop_stats_freq = [ 0 1821472 0 0 0 0 0 0 0 0 0 0 0 0 0 0 0 0 0 0 ];
=======Traffic[1]class0 ======
Traffic[1]class0Overall average latency = 6.57486 (8 samples)
Traffic[1]class0Overall average accepted rate = 0.0655565 (8 samples)
Traffic[1]class0Overall min accepted rate = 0 (8 samples)
traffic_manager/latency_stat_0_freq = [ 0 57383 3211 927 1572 16394 2461 483 547 277 282 93 49 48 20 23 13 10 5 2 3 5 4 2 8 5 1 5 2 1 0 1 1 0 1 1 0 0 0 0 0 0 0 0 0 0 0 0 0 0 0 0 0 0 0 0 0 0 0 0 0 0 0 0 0 0 0 0 0 0 0 0 0 0 0 0 0 0 0 0 0 0 0 0 0 0 0 0 0 0 0 0 0 0 0 0 0 0 0 0 0 0 0 0 0 0 0 0 0 0 0 0 0 0 0 0 0 0 0 0 0 0 0 0 0 0 0 0 0 0 0 0 0 0 0 0 0 0 0 0 0 0 0 0 0 0 0 0 0 0 0 0 0 0 0 0 0 0 0 0 0 0 0 0 0 0 0 0 0 0 0 0 0 0 0 0 0 0 0 0 0 0 0 0 0 0 0 0 0 0 0 0 0 0 0 0 0 0 0 0 0 0 0 0 0 0 0 0 0 0 0 0 0 0 0 0 0 0 0 0 0 0 0 0 0 0 0 0 0 0 0 0 0 0 0 0 0 0 0 0 0 0 0 0 0 0 0 0 0 0 0 0 0 0 0 0 0 0 0 0 0 0 0 0 0 0 0 0 0 0 0 0 0 0 0 0 0 0 0 0 0 0 0 0 0 0 0 0 0 0 0 0 0 0 0 0 0 0 0 0 0 0 0 0 0 0 0 0 0 0 0 0 0 0 0 0 0 0 0 0 0 0 0 0 0 0 0 0 0 0 0 0 0 0 0 0 0 0 0 0 0 0 0 0 0 0 0 0 0 0 0 0 0 0 0 0 0 0 0 0 0 0 0 0 0 0 0 0 0 0 0 0 0 0 0 0 0 0 0 0 0 0 0 0 0 0 0 0 0 0 0 0 0 0 0 0 0 0 0 0 0 0 0 0 0 0 0 0 0 0 0 0 0 0 0 0 0 0 0 0 0 0 0 0 0 0 0 0 0 0 0 0 0 0 0 0 0 0 0 0 0 0 0 0 0 0 0 0 0 0 0 0 0 0 0 0 0 0 0 0 0 0 0 0 0 0 0 0 0 0 0 0 0 0 0 0 0 0 0 0 0 0 0 0 0 0 0 0 0 0 0 0 0 0 0 0 0 0 0 0 0 0 0 0 0 0 0 0 0 0 0 0 0 0 0 0 0 0 0 0 0 0 0 0 0 0 0 0 0 0 0 0 0 0 0 0 0 0 0 0 0 0 0 0 0 0 0 0 0 0 0 0 0 0 0 0 0 0 0 0 0 0 0 0 0 0 0 0 0 0 0 0 0 0 0 0 0 0 0 0 0 0 0 0 0 0 0 0 0 0 0 0 0 0 0 0 0 0 0 0 0 0 0 0 0 0 0 0 0 0 0 0 0 0 0 0 0 0 0 0 0 0 0 0 0 0 0 0 0 0 0 0 0 0 0 0 0 0 0 0 0 0 0 0 0 0 0 0 0 0 0 0 0 0 0 0 0 0 0 0 0 0 0 0 0 0 0 0 0 0 0 0 0 0 0 0 0 0 0 0 0 0 0 0 0 0 0 0 0 0 0 0 0 0 0 0 0 0 0 0 0 0 0 0 0 0 0 0 0 0 0 0 0 0 0 0 0 0 0 0 0 0 0 0 0 0 0 0 0 0 0 0 0 0 0 0 0 0 0 0 0 0 0 0 0 0 0 0 0 0 0 0 0 0 0 0 0 0 0 0 0 0 0 0 0 0 0 0 0 0 0 0 0 0 0 0 0 0 0 0 0 0 0 0 0 0 0 0 0 0 0 0 0 0 0 0 0 0 0 0 0 0 0 0 0 0 0 0 0 0 0 0 0 0 0 0 0 0 0 0 0 0 0 0 0 0 0 0 0 0 0 0 0 0 0 0 0 0 0 0 0 0 0 0 0 0 0 0 0 0 0 0 0 0 0 0 0 0 0 0 0 0 0 0 0 0 0 0 0 0 0 0 0 0 0 0 0 0 0 0 0 0 0 0 0 0 0 0 0 0 0 0 0 0 0 0 0 0 0 0 0 0 0 0 0 0 0 0 0 0 0 0 0 0 0 0 0 0 0 0 0 0 0 0 0 0 0 0 0 0 0 0 0 0 0 0 0 0 0 0 0 0 0 0 0 0 0 0 0 0 0 0 0 0 0 0 0 0 0 0 0 0 0 0 0 0 0 0 0 0 0 0 0 0 0 0 0 0 0 0 0 0 0 0 0 0 0 0 0 0 0 0 0 0 0 0 0 0 0 0 ];
Traffic[1]class1Average hops = 1 (1821472 samples)
traffic_manager/hop_stats_freq = [ 0 1821472 0 0 0 0 0 0 0 0 0 0 0 0 0 0 0 0 0 0 ];
----------------------------END-of-Interconnect-DETAILS-------------------------

gpgpu_simulation_time = 0 days, 0 hrs, 17 min, 24 sec (1044 sec)
gpgpu_simulation_rate = 355088 (inst/sec)
gpgpu_simulation_rate = 1621 (cycle/sec)

