GPGPU-Sim PTX: pushing kernel '_Z11syrk_kernelffPfS_' to stream 0, gridDim= (256,1,1) blockDim = (1024,1,1) 
gpu_sim_cycle = 165965540
gpu_ipc =       8.9685
total_dl1_misses=136577384
total_dl1_accesses=138420224
total_dl1_miss_rate= 0.986687
gpgpu_stall_shd_mem[gl_mem][coal_stall] = -2070147240
L2 Cache Total Miss Rate = 0.009
