

        *** GPGPU-Sim Simulator Version 3.2.1  [build 15629] ***


               1=functional simulation only, 0=detailed performance simulator)
GPGPU-Sim: Configuration options:

-network_mode                           1 # Interconnection network mode
-inter_config_file   config_fermi_islip.icnt # Interconnection network config file
-gpgpu_ptx_use_cuobjdump                    1 # Use cuobjdump to extract ptx and sass from binaries
-gpgpu_experimental_lib_support                    0 # Try to extract code from cuda libraries [Broken because of unknown cudaGetExportTable]
-gpgpu_ptx_convert_to_ptxplus                    0 # Convert SASS (native ISA) to ptxplus and run ptxplus
-gpgpu_ptx_force_max_capability                   20 # Force maximum compute capability
-gpgpu_ptx_inst_debug_to_file                    0 # Dump executed instructions' debug information to file
-gpgpu_ptx_inst_debug_file       inst_debug.txt # Executed instructions' debug output file
-gpgpu_ptx_inst_debug_thread_uid                    1 # Thread UID for executed instructions' debug output
-gpgpu_simd_model                       1 # 1 = post-dominator
-gpgpu_shader_core_pipeline              1536:32 # shader core pipeline config, i.e., {<nthread>:<warpsize>}
-gpgpu_tex_cache:l1  4:128:24,L:R:m:N,F:128:4,128:2 # per-shader L1 texture cache  (READ-ONLY) config  {<nsets>:<bsize>:<assoc>,<rep>:<wr>:<alloc>:<wr_alloc>,<mshr>:<N>:<merge>,<mq>:<rf>}
-gpgpu_const_cache:l1 64:64:2,L:R:f:N,A:2:32,4 # per-shader L1 constant memory cache  (READ-ONLY) config  {<nsets>:<bsize>:<assoc>,<rep>:<wr>:<alloc>:<wr_alloc>,<mshr>:<N>:<merge>,<mq>} 
-gpgpu_cache:il1     4:128:4,L:R:f:N,A:2:32,4 # shader L1 instruction cache config  {<nsets>:<bsize>:<assoc>,<rep>:<wr>:<alloc>:<wr_alloc>,<mshr>:<N>:<merge>,<mq>} 
-gpgpu_cache:dl1     32:128:4,L:L:m:N,A:32:8,8 # per-shader L1 data cache config  {<nsets>:<bsize>:<assoc>,<rep>:<wr>:<alloc>:<wr_alloc>,<mshr>:<N>:<merge>,<mq> | none}
-gpgpu_perfect_mem                      0 # enable perfect memory mode (no cache miss)
-n_regfile_gating_group                    4 # group of lanes that should be read/written together)
-gpgpu_clock_gated_reg_file                    0 # enable clock gated reg file for power calculations
-gpgpu_clock_gated_lanes                    0 # enable clock gated lanes for power calculations
-gpgpu_shader_registers                32768 # Number of registers per shader core. Limits number of concurrent CTAs. (default 8192)
-gpgpu_shader_cta                       8 # Maximum number of concurrent CTAs in shader (default 8)
-gpgpu_n_clusters                      14 # number of processing clusters
-gpgpu_n_cores_per_cluster                    1 # number of simd cores per cluster
-gpgpu_n_cluster_ejection_buffer_size                    8 # number of packets in ejection buffer
-gpgpu_n_ldst_response_buffer_size                    2 # number of response packets in ld/st unit ejection buffer
-gpgpu_shmem_size                   16384 # Size of shared memory per shader core (default 16kB)
-gpgpu_shmem_num_banks                   32 # Number of banks in the shared memory in each shader core (default 16)
-gpgpu_shmem_limited_broadcast                    0 # Limit shared memory to do one broadcast per cycle (default on)
-gpgpu_shmem_warp_parts                    1 # Number of portions a warp is divided into for shared memory bank conflict check 
-gpgpu_warpdistro_shader                   -1 # Specify which shader core to collect the warp size distribution from
-gpgpu_warp_issue_shader                    0 # Specify which shader core to collect the warp issue distribution from
-gpgpu_local_mem_map                    1 # Mapping from local memory space address to simulated GPU physical address space (default = enabled)
-gpgpu_num_reg_banks                   16 # Number of register banks (default = 8)
-gpgpu_reg_bank_use_warp_id                    0 # Use warp ID in mapping registers to banks (default = off)
-gpgpu_operand_collector_num_units_sp                    6 # number of collector units (default = 4)
-gpgpu_operand_collector_num_units_sfu                    8 # number of collector units (default = 4)
-gpgpu_operand_collector_num_units_mem                    2 # number of collector units (default = 2)
-gpgpu_operand_collector_num_units_gen                    0 # number of collector units (default = 0)
-gpgpu_operand_collector_num_in_ports_sp                    2 # number of collector unit in ports (default = 1)
-gpgpu_operand_collector_num_in_ports_sfu                    1 # number of collector unit in ports (default = 1)
-gpgpu_operand_collector_num_in_ports_mem                    1 # number of collector unit in ports (default = 1)
-gpgpu_operand_collector_num_in_ports_gen                    0 # number of collector unit in ports (default = 0)
-gpgpu_operand_collector_num_out_ports_sp                    2 # number of collector unit in ports (default = 1)
-gpgpu_operand_collector_num_out_ports_sfu                    1 # number of collector unit in ports (default = 1)
-gpgpu_operand_collector_num_out_ports_mem                    1 # number of collector unit in ports (default = 1)
-gpgpu_operand_collector_num_out_ports_gen                    0 # number of collector unit in ports (default = 0)
-gpgpu_coalesce_arch                   13 # Coalescing arch (default = 13, anything else is off for now)
-gpgpu_num_sched_per_core                    2 # Number of warp schedulers per core
-gpgpu_max_insn_issue_per_warp                    1 # Max number of instructions that can be issued per warp in one cycle by scheduler
-gpgpu_simt_core_sim_order                    1 # Select the simulation order of cores in a cluster (0=Fix, 1=Round-Robin)
-gpgpu_pipeline_widths        2,1,1,2,1,1,2 # Pipeline widths ID_OC_SP,ID_OC_SFU,ID_OC_MEM,OC_EX_SP,OC_EX_SFU,OC_EX_MEM,EX_WB
-gpgpu_num_sp_units                     2 # Number of SP units (default=1)
-gpgpu_num_sfu_units                    1 # Number of SF units (default=1)
-gpgpu_num_mem_units                    1 # Number if ldst units (default=1) WARNING: not hooked up to anything
-gpgpu_scheduler                      lrr # Scheduler configuration: < lrr | gto | two_level_active > If two_level_active:<num_active_warps>:<inner_prioritization>:<outer_prioritization>For complete list of prioritization values see shader.h enum scheduler_prioritization_typeDefault: gto
-gpgpu_dram_scheduler                    1 # 0 = fifo, 1 = FR-FCFS (defaul)
-gpgpu_dram_partition_queues              8:8:8:8 # i2$:$2d:d2$:$2i
-l2_ideal                               0 # Use a ideal L2 cache that always hit
-gpgpu_cache:dl2     64:128:16,L:B:m:W,A:32:4,4 # unified banked L2 data cache config  {<nsets>:<bsize>:<assoc>,<rep>:<wr>:<alloc>:<wr_alloc>,<mshr>:<N>:<merge>,<mq>}
-gpgpu_cache:dl2_texture_only                    0 # L2 cache used for texture only
-gpgpu_n_mem                            5 # number of memory modules (e.g. memory controllers) in gpu
-gpgpu_n_mem_per_ctrlr                    2 # number of memory chips per memory controller
-gpgpu_memlatency_stat                   14 # track and display latency statistics 0x2 enables MC, 0x4 enables queue logs
-gpgpu_frfcfs_dram_sched_queue_size                   16 # 0 = unlimited (default); # entries per chip
-gpgpu_dram_return_queue_size                    0 # 0 = unlimited (default); # entries per chip
-gpgpu_dram_buswidth                    4 # default = 4 bytes (8 bytes per cycle at DDR)
-gpgpu_dram_burst_length                    8 # Burst length of each DRAM request (default = 4 data bus cycle)
-dram_data_command_freq_ratio                    4 # Frequency ratio between DRAM data bus and command bus (default = 2 times, i.e. DDR)
-gpgpu_dram_timing_opt nbk=16:CCD=2:RRD=6:RCD=12:RAS=28:RP=12:RC=40: CL=12:WL=4:CDLR=5:WR=12:nbkgrp=4:CCDL=3:RTPL=2 # DRAM timing parameters = {nbk:tCCD:tRRD:tRCD:tRAS:tRP:tRC:CL:WL:tCDLR:tWR:nbkgrp:tCCDL:tRTPL}
-rop_latency                          120 # ROP queue latency (default 85)
-dram_latency                         100 # DRAM latency (default 30)
-gpgpu_mem_addr_mapping dramid@8;00000000.00000000.00000000.00000000.0000RRRR.RRRRRRRR.BBBBCCCC.CCSSSSSS # mapping memory address to dram model {dramid@<start bit>;<memory address map>}
-gpgpu_mem_addr_test                    0 # run sweep test to check address mapping for aliased address
-gpgpu_mem_address_mask                    1 # 0 = old addressing mask, 1 = new addressing mask, 2 = new add. mask + flipped bank sel and chip sel bits
-gpuwattch_xml_file         gpuwattch.xml # GPUWattch XML file
-power_simulation_enabled                    1 # Turn on power simulator (1=On, 0=Off)
-power_per_cycle_dump                    0 # Dump detailed power output each cycle
-power_trace_enabled                    1 # produce a file for the power trace (1=On, 0=Off)
-power_trace_zlevel                     6 # Compression level of the power trace output log (0=no comp, 9=highest)
-steady_power_levels_enabled                    0 # produce a file for the steady power levels (1=On, 0=Off)
-steady_state_definition                  8:4 # allowed deviation:number of samples
-gpgpu_max_cycle                        0 # terminates gpu simulation early (0 = no limit)
-gpgpu_max_insn                         0 # terminates gpu simulation early (0 = no limit)
-gpgpu_max_cta                          0 # terminates gpu simulation early (0 = no limit)
-gpgpu_runtime_stat                   500 # display runtime statistics such as dram utilization {<freq>:<flag>}
-gpgpu_flush_l1_cache                    0 # Flush L1 cache at the end of each kernel call
-gpgpu_flush_l2_cache                    0 # Flush L2 cache at the end of each kernel call
-gpgpu_deadlock_detect                    1 # Stop the simulation at deadlock (1=on (default), 0=off)
-gpgpu_ptx_instruction_classification                    0 # if enabled will classify ptx instruction types per kernel (Max 255 kernels now)
-gpgpu_ptx_sim_mode                     0 # Select between Performance (default) or Functional simulation (1)
-gpgpu_clock_domains 600.0:1200.0:600.0:450.0 # Clock Domain Frequencies in MhZ {<Core Clock>:<ICNT Clock>:<L2 Clock>:<DRAM Clock>}
-gpgpu_max_concurrent_kernel                    8 # maximum kernels that can run concurrently on GPU
-gpgpu_cflog_interval                    0 # Interval between each snapshot in control flow logger
-visualizer_enabled                     0 # Turn on visualizer output (1=On, 0=Off)
-visualizer_outputfile                 NULL # Specifies the output log file for visualizer
-visualizer_zlevel                      6 # Compression level of the visualizer output log (0=no comp, 9=highest)
-trace_enabled                          0 # Turn on traces
-trace_components                    none # comma seperated list of traces to enable. Complete list found in trace_streams.tup. Default none
-trace_sampling_core                    0 # The core which is printed using CORE_DPRINTF. Default 0
-enable_ptx_file_line_stats                    1 # Turn on PTX source line statistic profiling. (1 = On)
-ptx_line_stats_filename gpgpu_inst_stats.txt # Output file for PTX source line statistics.
-save_embedded_ptx                      0 # saves ptx files embedded in binary as <n>.ptx
-keep                                   0 # keep intermediate files created by GPGPU-Sim when interfacing with external programs
-gpgpu_ptx_save_converted_ptxplus                    0 # Saved converted ptxplus to a file
-ptx_opcode_latency_int         4,13,4,5,145 # Opcode latencies for integers <ADD,MAX,MUL,MAD,DIV>Default 1,1,19,25,145
-ptx_opcode_latency_fp          4,13,4,5,39 # Opcode latencies for single precision floating points <ADD,MAX,MUL,MAD,DIV>Default 1,1,1,1,30
-ptx_opcode_latency_dp         8,19,8,8,330 # Opcode latencies for double precision floating points <ADD,MAX,MUL,MAD,DIV>Default 8,8,8,8,335
-ptx_opcode_initiation_int            1,2,2,1,8 # Opcode initiation intervals for integers <ADD,MAX,MUL,MAD,DIV>Default 1,1,4,4,32
-ptx_opcode_initiation_fp            1,2,1,1,4 # Opcode initiation intervals for single precision floating points <ADD,MAX,MUL,MAD,DIV>Default29dfdadf02c7530b030443967fc85d07  /tmp/tmp.Ss9ajEVKnz/histo__SIZE1_1
 1,1,1,1,5
-ptx_opcode_initiation_dp         8,16,8,8,130 # Opcode initiation intervals for double precision floating points <ADD,MAX,MUL,MAD,DIV>Default 8,8,8,8,130
DRAM Timing Options:
nbk                                    16 # number of banks
CCD                                     2 # column to column delay
RRD                                     6 # minimal delay between activation of rows in different banks
RCD                                    12 # row to column delay
RAS                                    28 # time needed to activate row
RP                                     12 # time needed to precharge (deactivate) row
RC                                     40 # row cycle time
CDLR                                    5 # switching from write to read (changes tWTR)
WR                                     12 # last data-in to row precharge
CL                                     12 # CAS latency
WL                                      4 # Write latency
nbkgrp                                  4 # number of bank groups
CCDL                                    3 # column to column delay between accesses to different bank groups
RTPL                                    2 # read to precharge delay between accesses to different bank groups
addr_dec_mask[CHIP]  = 0000000000000000 	high:64 low:0
addr_dec_mask[BK]    = 000000000000f000 	high:16 low:12
addr_dec_mask[ROW]   = 000000000fff0000 	high:28 low:16
addr_dec_mask[COL]   = 0000000000000fff 	high:12 low:0
addr_dec_mask[BURST] = 000000000000003f 	high:6 low:0
*** Initializing Memory Statistics ***
self exe links to: /tmp/tmp.Ss9ajEVKnz/histo__SIZE1_1
Running md5sum using "md5sum /tmp/tmp.Ss9ajEVKnz/histo__SIZE1_1 "
Running cuobjdump using "$CUDA_INSTALL_PATH/bin/cuobjdump -ptx -elf -sass /tmp/tmp.Ss9ajEVKnz/histo__SIZE1_1 > _cuobjdump_complete_output_WKjgbl"
Parsing file _cuobjdump_complete_output_WKjgbl
######### cuobjdump parser ########
## Adding new section PTX
Adding ptx filename: _cuobjdump_1.ptx
Adding arch: sm_13
Adding identifier: benchmarks/histo/histo.cu
## Adding new section ELF
Adding arch: sm_13
Adding identifier: benchmarks/histo/histo.cu
Done parsing!!!
Adding _cuobjdump_1.ptx with cubin handle 1
Running: cat _ptx_e4ioJv | sed 's/.version 1.5/.version 1.4/' | sed 's/, texmode_independent//' | sed 's/\(\.extern \.const\[1\] .b8 \w\+\)\[\]/\1\[1\]/' | sed 's/const\[.\]/const\[0\]/g' > _ptx2_gXPxhG

kernel '_Z20histo_prescan_kernelPjiS_' transfer to GPU hardware scheduler
kernel_name = _Z20histo_prescan_kernelPjiS_ 
kernel_launch_uid = 1 
gpu_sim_cycle = 17354
gpu_sim_insn = 5500864
gpu_ipc =     316.9796
gpu_tot_sim_cycle = 17354
gpu_tot_sim_insn = 5500864
gpu_tot_ipc =     316.9796
gpu_tot_issued_cta = 0
gpu_stall_dramfull = 17400
gpu_stall_icnt2sh    = 13428
gpu_total_sim_rate=366724
Cache L1D_000:	Size = 16384 B (32 Set x 4-way x 128 byte line)
		Access = 1524, Miss = 957 (0.628), PendingHit = 280 (0.184)
Cache L1D_001:	Size = 16384 B (32 Set x 4-way x 128 byte line)
		Access = 894, Miss = 444 (0.497), PendingHit = 235 (0.263)
Cache L1D_002:	Size = 16384 B (32 Set x 4-way x 128 byte line)
		Access = 1016, Miss = 441 (0.434), PendingHit = 283 (0.279)
Cache L1D_003:	Size = 16384 B (32 Set x 4-way x 128 byte line)
		Access = 1018, Miss = 445 (0.437), PendingHit = 226 (0.222)
Cache L1D_004:	Size = 16384 B (32 Set x 4-way x 128 byte line)
		Access = 1526, Miss = 876 (0.574), PendingHit = 296 (0.194)
Cache L1D_005:	Size = 16384 B (32 Set x 4-way x 128 byte line)
		Access = 1400, Miss = 920 (0.657), PendingHit = 179 (0.128)
Cache L1D_006:	Size = 16384 B (32 Set x 4-way x 128 byte line)
		Access = 1276, Miss = 494 (0.387), PendingHit = 375 (0.294)
Cache L1D_007:	Size = 16384 B (32 Set x 4-way x 128 byte line)
		Access = 1016, Miss = 440 (0.433), PendingHit = 234 (0.23)
Cache L1D_008:	Size = 16384 B (32 Set x 4-way x 128 byte line)
		Access = 1016, Miss = 475 (0.468), PendingHit = 231 (0.227)
Cache L1D_009:	Size = 16384 B (32 Set x 4-way x 128 byte line)
		Access = 1016, Miss = 444 (0.437), PendingHit = 242 (0.238)
Cache L1D_010:	Size = 16384 B (32 Set x 4-way x 128 byte line)
		Access = 1020, Miss = 442 (0.433), PendingHit = 252 (0.247)
Cache L1D_011:	Size = 16384 B (32 Set x 4-way x 128 byte line)
		Access = 1526, Miss = 801 (0.525), PendingHit = 306 (0.201)
Cache L1D_012:	Size = 16384 B (32 Set x 4-way x 128 byte line)
		Access = 1018, Miss = 434 (0.426), PendingHit = 279 (0.274)
Cache L1D_013:	Size = 16384 B (32 Set x 4-way x 128 byte line)
		Access = 762, Miss = 368 (0.483), PendingHit = 215 (0.282)
total_dl1_misses=7981
total_dl1_accesses=16028
total_dl1_miss_rate= 0.497941
Shader 0 dynamic_warp_id issue ditsribution:
dynamic_warp_id:
0, 1, 2, 3, 4, 5, 6, 7, 8, 9, 10, 11, 12, 13, 14, 15, 16, 17, 18, 19, 20, 21, 22, 23, 24, 25, 26, 27, 28, 29, 30, 31, 32, 33, 34, 35, 36, 37, 38, 39, 40, 41, 42, 43, 44, 45, 46, 47, 48, 49, 50, 51, 52, 53, 54, 55, 56, 57, 58, 59, 60, 61, 62, 63, 64, 65, 66, 67, 68, 69, 70, 71, 72, 73, 74, 75, 76, 77, 78, 79, 80, 81, 82, 83, 84, 85, 86, 87, 88, 89, 90, 91, 92, 93, 94, 95, 
distro:
269, 201, 188, 188, 175, 175, 175, 175, 162, 162, 162, 162, 162, 162, 162, 162, 269, 201, 188, 188, 175, 175, 175, 175, 162, 162, 162, 162, 162, 162, 162, 162, 269, 201, 188, 188, 175, 175, 175, 175, 162, 162, 162, 162, 162, 162, 162, 162, 269, 201, 188, 188, 175, 175, 175, 175, 162, 162, 162, 162, 162, 162, 162, 162, 269, 201, 188, 188, 175, 175, 175, 175, 162, 162, 162, 162, 162, 162, 162, 162, 269, 201, 188, 188, 175, 175, 175, 175, 162, 162, 162, 162, 162, 162, 162, 162, 
gpgpu_n_tot_thrd_icount = 5820416
gpgpu_n_tot_w_icount = 181888
gpgpu_n_icache_hits = 104640
gpgpu_n_icache_misses = 3884
gpgpu_n_l1dcache_read_hits = 4414
gpgpu_n_l1dcache_read_misses = 11614
gpgpu_n_l1dcache_write_accesses = 0
gpgpu_n_l1dcache_wirte_misses = 0
gpgpu_n_tcache_hits = 0
gpgpu_n_tcache_misses = 0
gpgpu_n_ccache_hits = 2688
gpgpu_n_ccache_misses = 448
gpgpu_n_stall_shd_mem = 64222
gpgpu_n_mem_read_local = 0
gpgpu_n_mem_write_local = 0
gpgpu_n_mem_read_global = 8109
gpgpu_n_mem_write_global = 0
gpgpu_n_mem_texture = 0
gpgpu_n_mem_const = 14
gpgpu_n_load_insn  = 518144
gpgpu_n_store_insn = 0
gpgpu_n_shmem_insn = 782208
gpgpu_n_tex_insn = 0
gpgpu_n_const_mem_insn = 0
gpgpu_n_param_mem_insn = 196736
gpgpu_n_shmem_bkconflict = 0
gpgpu_n_cache_bkconflict = 0
gpgpu_n_intrawarp_mshr_merge = 0
gpgpu_n_cmem_portconflict = 3199
gpgpu_stall_shd_mem[c_mem][bk_conf] = 3199
gpgpu_stall_shd_mem[c_mem][mshr_rc] = 0
gpgpu_stall_shd_mem[c_mem][icnt_rc] = 0
gpgpu_stall_shd_mem[t_mem][mshr_rc] = 0
gpgpu_stall_shd_mem[t_mem][icnt_rc] = 0
gpgpu_stall_shd_mem[s_mem][bk_conf] = 0
gpgpu_stall_shd_mem[gl_mem][bk_conf] = 0
gpgpu_stall_shd_mem[gl_mem][coal_stall] = 61023
gpgpu_stall_shd_mem[g_mem_ld][mshr_rc] = 0
gpgpu_stall_shd_mem[g_mem_ld][icnt_rc] = 0
gpgpu_stall_shd_mem[g_mem_ld][wb_icnt_rc] = 0
gpgpu_stall_shd_mem[g_mem_ld][wb_rsrv_fail] = 0
gpgpu_stall_shd_mem[g_mem_st][mshr_rc] = 0
gpgpu_stall_shd_mem[g_mem_st][icnt_rc] = 0
gpgpu_stall_shd_mem[g_mem_st][wb_icnt_rc] = 0
gpgpu_stall_shd_mem[g_mem_st][wb_rsrv_fail] = 0
gpgpu_stall_shd_mem[l_mem_ld][mshr_rc] = 0
gpgpu_stall_shd_mem[l_mem_ld][icnt_rc] = 0
gpgpu_stall_shd_mem[l_mem_ld][wb_icnt_rc] = 0
gpgpu_stall_shd_mem[l_mem_ld][wb_rsrv_fail] = 0
gpgpu_stall_shd_mem[l_mem_st][mshr_rc] = 0
gpgpu_stall_shd_mem[l_mem_st][icnt_rc] = 0
gpgpu_stall_shd_mem[l_mem_ld][wb_icnt_rc] = 0
gpgpu_stall_shd_mem[l_mem_ld][wb_rsrv_fail] = 0
gpu_reg_bank_conflict_stalls = 0
Warp Occupancy Distribution:
Stall:105766	W0_Idle:56457	W0_Scoreboard:65721	W1:1472	W2:512	W3:0	W4:512	W5:0	W6:0	W7:1088	W8:512	W9:0	W10:0	W11:0	W12:0	W13:0	W14:0	W15:0	W16:512	W17:0	W18:0	W19:0	W20:0	W21:0	W22:0	W23:0	W24:0	W25:0	W26:0	W27:0	W28:0	W29:0	W30:0	W31:0	W32:177280
maxmrqlatency = 369 
maxdqlatency = 0 
maxmflatency = 1012 
averagemflatency = 356 
max_icnt2mem_latency = 580 
max_icnt2sh_latency = 26 
mrq_lat_table:1088 	286 	110 	166 	436 	930 	783 	300 	22 	0 	0 	0 	0 	0 	0 	0 	0 	0 	0 	0 	0 	0 	0 	0 	0 	0 	0 	0 	0 	0 	0 	0 	
dq_lat_table:0 	0 	0 	0 	0 	0 	0 	0 	0 	0 	0 	0 	0 	0 	0 	0 	0 	0 	0 	0 	0 	0 	0 	0 	0 	0 	0 	0 	0 	0 	0 	0 	
mf_lat_table:0 	0 	0 	0 	0 	0 	534 	1926 	3719 	1944 	0 	0 	0 	0 	0 	0 	0 	0 	0 	0 	0 	0 	0 	0 	0 	0 	0 	0 	0 	0 	0 	0 	
icnt2mem_lat_table:168 	3638 	228 	292 	429 	603 	1067 	1410 	439 	3 	0 	0 	0 	0 	0 	0 	0 	0 	0 	0 	0 	0 	0 	0 	
icnt2sh_lat_table:78 	3737 	1666 	2491 	151 	0 	0 	0 	0 	0 	0 	0 	0 	0 	0 	0 	0 	0 	0 	0 	0 	0 	0 	0 	
mf_lat_pw_table:0 	0 	0 	0 	0 	0 	3 	7 	11 	6 	0 	0 	0 	0 	0 	0 	0 	0 	0 	0 	0 	0 	0 	0 	0 	0 	0 	0 	0 	0 	0 	0 	
maximum concurrent accesses to same row:
dram[0]:         7         8         4         5         4         4         4         4         8         4         4        10         4         6         4         4 
dram[1]:         8         8         3         6         4         4         4         5         8         4         5        10         4         6         4         4 
dram[2]:         8         9         4         5         4         4         4         4         8         4         5        14         5         8         4         4 
dram[3]:         6        10         3         6         4         4         3         4         8         4         4        12         4         4         4         4 
dram[4]:        10        10         4         6         4         4         4         5         8         4         4        12         4         5         4         4 
maximum service time to same row:
dram[0]:      3775      8723      1566      2109      9248      7461      1742     10603      6465      1731     10574      6068      1559      7384      6348      1545 
dram[1]:      4330      8679      1569      1750      9290      7379      1783     10569      6345      1574     10593      5972      1562      7351      6352      1547 
dram[2]:      5854      8728      1547      1775      9299      7688      1535     10573      6356      1578     10606      6302      1565      7318      6318      1559 
dram[3]:      5567      8717      1546      4877      9294      7600      1535     10591      6332      1539     10603      6032      1561      7027      6229      1557 
dram[4]:      4796      8721      1746      1798      9178      7365      1582     10603      6734      1587     10570      6104      1562      7132      6424      1559 
average row accesses per activate:
dram[0]:  3.857143  3.047619  1.914286  2.600000  2.700000  1.939394  1.950000  2.714286  2.060606  1.567568  2.133333  2.241379  2.125000  4.000000  2.357143  1.828571 
dram[1]:  3.857143  3.045455  2.030303  2.700000  2.318182  2.030303  1.944444  2.411765  1.805556  1.648649  2.500000  2.538461  1.911765  4.000000  2.233333  1.857143 
dram[2]:  4.333333  3.238095  1.777778  3.000000  2.500000  1.837838  2.000000  2.529412  2.206897  1.906250  2.307692  2.833333  2.296296  3.714286  2.133333  2.060606 
dram[3]:  2.600000  3.350000  1.756757  1.846154  2.428571  1.717949  1.545455  2.647059  1.805556  1.621622  2.142857  2.060606  2.066667  3.111111  2.096774  1.888889 
dram[4]:  5.200000  3.368421  2.093750  1.692308  2.500000  2.064516  2.055556  3.000000  1.942857  1.583333  2.357143  2.321429  1.710526  2.888889  2.428571  1.911765 
average row locality = 4121/1892 = 2.178118
number of total memory accesses made:
dram[0]:         0         0         0         0         0         0         0         0         0         0         0         0         0         0         0         0 
dram[1]:         0         0         0         0         0         0         0         0         0         0         0         0         0         0         0         0 
dram[2]:         0         0         0         0         0         0         0         0         0         0         0         0         0         0         0         0 
dram[3]:         0         0         0         0         0         0         0         0         0         0         0         0         0         0         0         0 
dram[4]:         0         0         0         0         0         0         0         0         0         0         0         0         0         0         0         0 
total accesses: 0
min_bank_accesses = 0!
min_chip_accesses = 0!
number of total read accesses:
dram[0]:        27        64        67        26        54        64        39        38        68        58        32        65        68        24        66        64 
dram[1]:        27        67        67        27        51        67        35        41        65        61        30        66        65        24        67        65 
dram[2]:        26        68        64        27        50        68        34        43        64        61        30        68        62        26        64        68 
dram[3]:        26        67        65        24        51        67        34        45        65        60        30        68        62        28        65        68 
dram[4]:        26        64        67        22        55        64        37        42        68        57        33        65        65        26        68        65 
total reads: 4121
bank skew: 68/22 = 3.09
chip skew: 825/823 = 1.00
number of total write accesses:
dram[0]:         0         0         0         0         0         0         0         0         0         0         0         0         0         0         0         0 
dram[1]:         0         0         0         0         0         0         0         0         0         0         0         0         0         0         0         0 
dram[2]:         0         0         0         0         0         0         0         0         0         0         0         0         0         0         0         0 
dram[3]:         0         0         0         0         0         0         0         0         0         0         0         0         0         0         0         0 
dram[4]:         0         0         0         0         0         0         0         0         0         0         0         0         0         0         0         0 
total reads: 0
min_bank_accesses = 0!
min_chip_accesses = 0!
average mf latency per bank:
dram[0]:        674       511       747       806       569       730       732       502       697       772       374       673       820       474       578       828
dram[1]:        570       470       799       810       542       839       815       464       770       811       363       682       859       498       592       883
dram[2]:        513       483       749       720       533       756       753       412       703       764       362       653       818       445       563       786
dram[3]:        620       500       924      1879       545       921       909       421       888       940       359       810       963       493       616       977
dram[4]:        551       503       837       857       570       783       787       490       773       824       386       700       877       482       587       863
maximum mf latency per bank:
dram[0]:        656       594       719       756       498       866       758       597       700       733       423       867       815       528       664       964
dram[1]:        699       600       700       681       497       808       719       625       723       760       365       763       783       528       637       887
dram[2]:        624       579       720       572       474       753       729       488       659       708       355       710       772       493       711       812
dram[3]:        759       636       939       846       577       871       829       532       838       801       415       828       909       715       815      1012
dram[4]:        669       604       804       706       510       729       789       647       805       751       397       834       853       558       691       904

Number of Memory Banks Accessed per Memory Operation per Warp (from 0):
0	0	0	0	0	0	0	0	0	0	0	0	0	0	0	0	0	0	0	0	0	0	0	0	0	0	0	0	0	0	0	0	0	0	0	0	0	0	0	0	0	0	0	0	0	0	0	0	0	0	0	0	0	0	0	0	0	0	0	0	0	0	0	0	0	0	0	0	0	0	0	0	0	0	0	0	0	0	0	0	
Average # of Memory Banks Accessed per Memory Operation per Warp=-nan

position of mrq chosen
0	0	0	0	0	0	0	0	0	0	0	0	0	0	0	0	

average position of mrq chosen = -nan
gpgpu_l2_write_miss = 0
gpgpu_l2_write_access = 0
gpgpu_l2_read_miss = 0
gpgpu_l2_read_access = 0
Cache L2_bank_000:
MSHR contents

DRAM[0]: 16 bks, busW=4 BL=8 CL=12, tRRD=2 tCCD=6, tRCD=12 tRAS=28 tRP=12 tRC=40
n_cmd=13015 n_nop=10631 n_act=376 n_pre=360 n_req=824 n_rd=1648 n_write=0 bw_util=0.2532
n_activity=4585 dram_eff=0.7189
bk0: 54a 12175i bk1: 128a 11945i bk2: 134a 11415i bk3: 52a 11999i bk4: 108a 12022i bk5: 128a 11490i bk6: 78a 11841i bk7: 76a 12343i bk8: 136a 11523i bk9: 116a 11586i bk10: 64a 12258i bk11: 130a 11685i bk12: 136a 11317i bk13: 48a 12049i bk14: 132a 11486i bk15: 128a 10007i 
dram_util_bins: 0 0 0 0 0 0 0 0 0 0
dram_eff_bins: 0 0 0 0 0 0 0 0 0 0
mrqq: max=16 avg=2.13554
Cache L2_bank_001:
MSHR contents

DRAM[1]: 16 bks, busW=4 BL=8 CL=12, tRRD=2 tCCD=6, tRCD=12 tRAS=28 tRP=12 tRC=40
n_cmd=13015 n_nop=10623 n_act=379 n_pre=363 n_req=825 n_rd=1650 n_write=0 bw_util=0.2536
n_activity=4749 dram_eff=0.6949
bk0: 54a 12280i bk1: 134a 11929i bk2: 134a 11420i bk3: 54a 11958i bk4: 102a 11995i bk5: 134a 11336i bk6: 70a 11856i bk7: 82a 12190i bk8: 130a 11509i bk9: 122a 11517i bk10: 60a 12270i bk11: 132a 11660i bk12: 130a 11367i bk13: 48a 12051i bk14: 134a 11394i bk15: 130a 9971i 
dram_util_bins: 0 0 0 0 0 0 0 0 0 0
dram_eff_bins: 0 0 0 0 0 0 0 0 0 0
mrqq: max=16 avg=2.1466
Cache L2_bank_002:
MSHR contents

DRAM[2]: 16 bks, busW=4 BL=8 CL=12, tRRD=2 tCCD=6, tRCD=12 tRAS=28 tRP=12 tRC=40
n_cmd=13015 n_nop=10667 n_act=359 n_pre=343 n_req=823 n_rd=1646 n_write=0 bw_util=0.2529
n_activity=4607 dram_eff=0.7146
bk0: 52a 12161i bk1: 136a 11957i bk2: 128a 11473i bk3: 54a 11964i bk4: 100a 12052i bk5: 136a 11456i bk6: 68a 11890i bk7: 86a 12204i bk8: 128a 11597i bk9: 122a 11573i bk10: 60a 12216i bk11: 136a 11701i bk12: 124a 11296i bk13: 52a 12059i bk14: 128a 11465i bk15: 136a 10093i 
dram_util_bins: 0 0 0 0 0 0 0 0 0 0
dram_eff_bins: 0 0 0 0 0 0 0 0 0 0
mrqq: max=16 avg=1.84241
Cache L2_bank_003:
MSHR contents

DRAM[3]: 16 bks, busW=4 BL=8 CL=12, tRRD=2 tCCD=6, tRCD=12 tRAS=28 tRP=12 tRC=40
n_cmd=13015 n_nop=10571 n_act=405 n_pre=389 n_req=825 n_rd=1650 n_write=0 bw_util=0.2536
n_activity=4752 dram_eff=0.6944
bk0: 52a 12161i bk1: 134a 11853i bk2: 130a 11351i bk3: 48a 11964i bk4: 102a 12005i bk5: 134a 11251i bk6: 68a 11744i bk7: 90a 12166i bk8: 130a 11393i bk9: 120a 11564i bk10: 60a 12194i bk11: 136a 11533i bk12: 124a 11249i bk13: 56a 12107i bk14: 130a 11296i bk15: 136a 9853i 
dram_util_bins: 0 0 0 0 0 0 0 0 0 0
dram_eff_bins: 0 0 0 0 0 0 0 0 0 0
mrqq: max=16 avg=1.96051
Cache L2_bank_004:
MSHR contents

DRAM[4]: 16 bks, busW=4 BL=8 CL=12, tRRD=2 tCCD=6, tRCD=12 tRAS=28 tRP=12 tRC=40
n_cmd=13015 n_nop=10631 n_act=376 n_pre=360 n_req=824 n_rd=1648 n_write=0 bw_util=0.2532
n_activity=4735 dram_eff=0.6961
bk0: 52a 12186i bk1: 128a 11925i bk2: 134a 11580i bk3: 44a 12047i bk4: 110a 12045i bk5: 128a 11423i bk6: 74a 11820i bk7: 84a 12320i bk8: 136a 11575i bk9: 114a 11547i bk10: 66a 12281i bk11: 130a 11653i bk12: 130a 11393i bk13: 52a 12054i bk14: 136a 11415i bk15: 130a 9928i 
dram_util_bins: 0 0 0 0 0 0 0 0 0 0
dram_eff_bins: 0 0 0 0 0 0 0 0 0 0
mrqq: max=16 avg=2.17326
Cache L2_bank_000:	Size = 131072 B (64 Set x 16-way x 128 byte line)
		Access = 1643, Miss = 824 (0.502), PendingHit = 9 (0.00548)
Cache L2_bank_001:	Size = 131072 B (64 Set x 16-way x 128 byte line)
		Access = 1641, Miss = 825 (0.503), PendingHit = 9 (0.00548)
Cache L2_bank_002:	Size = 131072 B (64 Set x 16-way x 128 byte line)
		Access = 1621, Miss = 823 (0.508), PendingHit = 6 (0.0037)
Cache L2_bank_003:	Size = 131072 B (64 Set x 16-way x 128 byte line)
		Access = 1734, Miss = 825 (0.476), PendingHit = 9 (0.00519)
Cache L2_bank_004:	Size = 131072 B (64 Set x 16-way x 128 byte line)
		Access = 1638, Miss = 824 (0.503), PendingHit = 3 (0.00183)
L2 Cache Total Miss Rate = 0.498

icnt_total_pkts_mem_to_simt=40973
icnt_total_pkts_simt_to_mem=8277

LD_mem_lat_dist  0 0 0 0 0 0 0 0 0 0 0 0 0 0 0 0 0 0 0 0 0 0 0 0 0 0 0
ST_mem_lat_dist  0 0 0 0 0 0 0 0 0 0 0 0 0 0 0 0 0 0 0 0 0 0 0 0 0 0 0
Traffic 0 Stat
%=================================
% Average latency = 72.6311
% Accepted packets = 0 at node 0 (avg = 0.0105291)
lat(1) = 72.6311;
thru(1,:) = [ 0 0 0 0 0 0 0 0 0 0 0 0 0 0 0.0473392 0.0472815 0.0467053 0.0536491 0.0471951 0 0 0 0 ];
% latency change    = 1
% throughput change = 1
Traffic 1 Stat
%=================================
% Average latency = 10.6311
% Accepted packets = 0 at node 14 (avg = 0.0513278)
lat(2) = 10.6311;
thru(2,:) = [ 0.140231 0.0660962 0.065664 0.0662402 0.128562 0.134901 0.0734146 0.0655199 0.0705621 0.0660962 0.0658081 0.117757 0.0646555 0.0550321 0 0 0 0 0 0 0 0 0 ];
% latency change    = 5.83192
% throughput change = 0.794865
----------------------------Interconnect-DETAILS---------------------------------=======Traffic[0]class0 ======
Traffic[0]class0Overall average latency = 72.6311 (1 samples)
Traffic[0]class0Overall average accepted rate = 0.0105291 (1 samples)
Traffic[0]class0Overall min accepted rate = 0 (1 samples)
traffic_manager/latency_stat_0_freq = [ 0 4530 436 71 45 51 45 28 26 35 25 45 10 20 16 23 5 21 8 25 11 23 2 8 4 17 5 20 6 18 12 13 8 12 3 9 5 11 6 6 2 14 7 12 12 20 8 22 5 14 9 22 8 20 4 15 5 10 4 14 4 13 4 11 3 17 13 25 4 15 7 18 4 9 5 9 6 9 2 13 7 13 7 16 8 12 7 12 6 12 2 10 5 12 6 11 4 7 1 12 5 14 1 11 3 10 4 9 6 12 2 11 7 9 1 11 4 10 0 8 7 6 3 8 7 12 6 6 10 9 2 9 1 16 3 5 4 9 2 6 8 7 4 5 1 8 4 8 2 4 6 12 6 6 1 9 2 4 1 9 7 10 1 10 7 14 1 3 2 11 7 7 8 10 2 9 3 11 5 10 6 10 6 15 4 11 4 15 1 7 4 14 5 10 8 11 3 10 1 9 3 10 2 16 0 13 1 8 4 9 7 10 6 8 4 7 3 19 0 17 1 12 1 13 2 5 3 6 3 11 5 11 3 7 1 8 6 20 2 12 6 18 2 11 4 6 1 6 6 16 6 9 2 10 6 5 4 12 3 9 0 10 1 15 8 8 2 14 1 9 4 13 1 11 2 12 1 14 3 12 0 14 3 7 2 4 3 7 4 9 1 9 3 8 2 9 2 8 3 8 2 14 3 11 4 5 0 7 3 6 0 14 3 11 2 10 0 6 3 8 3 9 4 8 2 2 4 8 0 6 0 9 2 12 0 9 0 15 2 6 0 8 0 5 2 9 1 2 1 7 0 3 3 6 0 3 0 3 0 7 0 6 0 6 1 7 0 3 0 7 0 7 1 5 1 8 0 8 1 8 0 3 0 8 1 13 1 4 1 3 0 3 2 6 1 3 1 5 1 2 0 5 2 3 1 6 0 10 0 3 1 3 1 6 0 5 1 5 2 9 0 5 0 2 1 1 0 5 0 3 1 2 1 6 0 5 2 1 0 4 1 6 0 1 0 4 0 5 1 1 1 4 0 3 0 2 0 2 1 3 0 0 1 2 2 1 0 3 0 1 0 2 1 6 0 2 0 2 1 3 0 3 1 1 0 0 0 1 0 2 1 3 0 0 1 0 0 1 0 3 2 2 0 1 1 0 0 1 1 1 0 2 0 1 0 1 1 1 1 0 0 1 0 2 0 2 0 0 0 1 0 1 0 2 1 1 0 0 0 1 0 0 0 2 0 1 0 1 0 2 0 2 0 0 0 3 0 1 1 2 0 2 0 0 1 0 0 0 0 1 0 2 0 1 1 2 0 0 0 2 1 0 0 0 0 1 0 2 0 0 0 1 0 2 0 1 0 1 0 1 0 0 0 2 0 1 0 1 0 0 0 0 0 0 0 2 0 2 0 1 0 0 0 0 0 0 0 1 0 1 0 0 0 1 0 2 0 0 0 2 0 2 0 0 0 0 0 1 0 2 0 0 0 0 0 0 0 0 1 0 0 0 0 0 0 1 0 0 0 0 0 2 0 3 0 1 0 1 0 1 0 0 0 5 0 1 0 1 0 1 0 0 0 1 0 0 0 0 0 0 0 0 0 0 0 0 0 0 0 0 0 0 0 0 0 1 0 0 0 0 0 0 0 0 0 1 0 0 0 1 0 0 0 0 0 0 0 0 0 0 0 0 0 0 0 0 0 0 0 0 0 0 0 0 0 0 0 0 0 0 0 0 0 0 0 0 0 0 0 0 0 0 0 0 0 0 0 0 0 0 0 0 0 0 0 0 0 0 0 0 0 0 0 0 0 0 0 0 0 0 0 0 0 0 0 0 0 0 0 0 0 0 0 0 0 0 0 0 0 0 0 0 0 0 0 0 0 0 0 0 0 0 0 0 0 0 0 0 0 0 0 0 0 0 0 0 0 0 0 0 0 0 0 0 0 0 0 0 0 0 0 0 0 0 0 0 0 0 0 0 0 0 0 0 0 0 0 0 0 0 0 0 0 0 0 0 0 0 0 0 0 0 0 0 0 0 0 0 0 0 0 0 0 0 0 0 0 0 0 0 0 0 0 0 0 0 0 0 0 0 0 0 0 0 0 0 0 0 0 0 0 0 0 0 0 0 0 0 0 0 0 0 0 0 0 0 0 0 0 0 0 0 0 0 0 0 0 0 0 0 0 0 0 0 0 0 0 0 0 0 0 0 0 0 0 0 0 0 0 0 0 0 0 0 0 0 0 0 0 0 0 0 0 0 0 0 0 0 0 0 ];
Traffic[0]class1Average hops = 1 (8277 samples)
traffic_manager/hop_stats_freq = [ 0 8277 0 0 0 0 0 0 0 0 0 0 0 0 0 0 0 0 0 0 ];
=======Traffic[1]class0 ======
Traffic[1]class0Overall average latency = 10.6311 (1 samples)
Traffic[1]class0Overall average accepted rate = 0.0513278 (1 samples)
Traffic[1]class0Overall min accepted rate = 0 (1 samples)
traffic_manager/latency_stat_0_freq = [ 0 0 78 4 2 3289 475 198 421 451 285 123 84 95 148 59 1328 36 41 65 44 552 19 24 29 20 218 11 9 10 7 86 4 5 7 7 20 3 1 1 0 14 1 0 0 0 0 0 0 0 0 3 0 0 0 0 0 0 0 0 0 0 0 0 0 0 0 0 0 0 0 0 0 0 0 0 0 0 0 0 0 0 0 0 0 0 0 0 0 0 0 0 0 0 0 0 0 0 0 0 0 0 0 0 0 0 0 0 0 0 0 0 0 0 0 0 0 0 0 0 0 0 0 0 0 0 0 0 0 0 0 0 0 0 0 0 0 0 0 0 0 0 0 0 0 0 0 0 0 0 0 0 0 0 0 0 0 0 0 0 0 0 0 0 0 0 0 0 0 0 0 0 0 0 0 0 0 0 0 0 0 0 0 0 0 0 0 0 0 0 0 0 0 0 0 0 0 0 0 0 0 0 0 0 0 0 0 0 0 0 0 0 0 0 0 0 0 0 0 0 0 0 0 0 0 0 0 0 0 0 0 0 0 0 0 0 0 0 0 0 0 0 0 0 0 0 0 0 0 0 0 0 0 0 0 0 0 0 0 0 0 0 0 0 0 0 0 0 0 0 0 0 0 0 0 0 0 0 0 0 0 0 0 0 0 0 0 0 0 0 0 0 0 0 0 0 0 0 0 0 0 0 0 0 0 0 0 0 0 0 0 0 0 0 0 0 0 0 0 0 0 0 0 0 0 0 0 0 0 0 0 0 0 0 0 0 0 0 0 0 0 0 0 0 0 0 0 0 0 0 0 0 0 0 0 0 0 0 0 0 0 0 0 0 0 0 0 0 0 0 0 0 0 0 0 0 0 0 0 0 0 0 0 0 0 0 0 0 0 0 0 0 0 0 0 0 0 0 0 0 0 0 0 0 0 0 0 0 0 0 0 0 0 0 0 0 0 0 0 0 0 0 0 0 0 0 0 0 0 0 0 0 0 0 0 0 0 0 0 0 0 0 0 0 0 0 0 0 0 0 0 0 0 0 0 0 0 0 0 0 0 0 0 0 0 0 0 0 0 0 0 0 0 0 0 0 0 0 0 0 0 0 0 0 0 0 0 0 0 0 0 0 0 0 0 0 0 0 0 0 0 0 0 0 0 0 0 0 0 0 0 0 0 0 0 0 0 0 0 0 0 0 0 0 0 0 0 0 0 0 0 0 0 0 0 0 0 0 0 0 0 0 0 0 0 0 0 0 0 0 0 0 0 0 0 0 0 0 0 0 0 0 0 0 0 0 0 0 0 0 0 0 0 0 0 0 0 0 0 0 0 0 0 0 0 0 0 0 0 0 0 0 0 0 0 0 0 0 0 0 0 0 0 0 0 0 0 0 0 0 0 0 0 0 0 0 0 0 0 0 0 0 0 0 0 0 0 0 0 0 0 0 0 0 0 0 0 0 0 0 0 0 0 0 0 0 0 0 0 0 0 0 0 0 0 0 0 0 0 0 0 0 0 0 0 0 0 0 0 0 0 0 0 0 0 0 0 0 0 0 0 0 0 0 0 0 0 0 0 0 0 0 0 0 0 0 0 0 0 0 0 0 0 0 0 0 0 0 0 0 0 0 0 0 0 0 0 0 0 0 0 0 0 0 0 0 0 0 0 0 0 0 0 0 0 0 0 0 0 0 0 0 0 0 0 0 0 0 0 0 0 0 0 0 0 0 0 0 0 0 0 0 0 0 0 0 0 0 0 0 0 0 0 0 0 0 0 0 0 0 0 0 0 0 0 0 0 0 0 0 0 0 0 0 0 0 0 0 0 0 0 0 0 0 0 0 0 0 0 0 0 0 0 0 0 0 0 0 0 0 0 0 0 0 0 0 0 0 0 0 0 0 0 0 0 0 0 0 0 0 0 0 0 0 0 0 0 0 0 0 0 0 0 0 0 0 0 0 0 0 0 0 0 0 0 0 0 0 0 0 0 0 0 0 0 0 0 0 0 0 0 0 0 0 0 0 0 0 0 0 0 0 0 0 0 0 0 0 0 0 0 0 0 0 0 0 0 0 0 0 0 0 0 0 0 0 0 0 0 0 0 0 0 0 0 0 0 0 0 0 0 0 0 0 0 0 0 0 0 0 0 0 0 0 0 0 0 0 0 0 0 0 0 0 0 0 0 0 0 0 0 0 0 0 0 0 0 0 0 0 0 0 0 0 0 0 0 0 0 0 0 0 0 0 0 0 0 0 0 0 0 0 0 0 0 0 0 0 0 0 ];
Traffic[1]class1Average hops = 1 (8277 samples)
traffic_manager/hop_stats_freq = [ 0 8277 0 0 0 0 0 0 0 0 0 0 0 0 0 0 0 0 0 0 ];
----------------------------END-of-Interconnect-DETAILS-------------------------

gpgpu_simulation_time = 0 days, 0 hrs, 0 min, 15 sec (15 sec)
gpgpu_simulation_rate = 366724 (inst/sec)
gpgpu_simulation_rate = 1156 (cycle/sec)

kernel '_Z26histo_intermediates_kernelP5uint2jjjP6uchar4' transfer to GPU hardware scheduler
kernel_name = _Z26histo_intermediates_kernelP5uint2jjjP6uchar4 
kernel_launch_uid = 2 
gpu_sim_cycle = 310715
gpu_sim_insn = 15893670
gpu_ipc =      51.1519
gpu_tot_sim_cycle = 328069
gpu_tot_sim_insn = 21394534
gpu_tot_ipc =      65.2135
gpu_tot_issued_cta = 0
gpu_stall_dramfull = 979742
gpu_stall_icnt2sh    = 13816
gpu_total_sim_rate=135408
Cache L1D_000:	Size = 16384 B (32 Set x 4-way x 128 byte line)
		Access = 5856, Miss = 5090 (0.869), PendingHit = 286 (0.0488)
Cache L1D_001:	Size = 16384 B (32 Set x 4-way x 128 byte line)
		Access = 5226, Miss = 4612 (0.883), PendingHit = 238 (0.0455)
Cache L1D_002:	Size = 16384 B (32 Set x 4-way x 128 byte line)
		Access = 3182, Miss = 2479 (0.779), PendingHit = 284 (0.0893)
Cache L1D_003:	Size = 16384 B (32 Set x 4-way x 128 byte line)
		Access = 5350, Miss = 4530 (0.847), PendingHit = 238 (0.0445)
Cache L1D_004:	Size = 16384 B (32 Set x 4-way x 128 byte line)
		Access = 5136, Miss = 3827 (0.745), PendingHit = 356 (0.0693)
Cache L1D_005:	Size = 16384 B (32 Set x 4-way x 128 byte line)
		Access = 3566, Miss = 2981 (0.836), PendingHit = 179 (0.0502)
Cache L1D_006:	Size = 16384 B (32 Set x 4-way x 128 byte line)
		Access = 5608, Miss = 4356 (0.777), PendingHit = 383 (0.0683)
Cache L1D_007:	Size = 16384 B (32 Set x 4-way x 128 byte line)
		Access = 5348, Miss = 4509 (0.843), PendingHit = 237 (0.0443)
Cache L1D_008:	Size = 16384 B (32 Set x 4-way x 128 byte line)
		Access = 3182, Miss = 2478 (0.779), PendingHit = 231 (0.0726)
Cache L1D_009:	Size = 16384 B (32 Set x 4-way x 128 byte line)
		Access = 3182, Miss = 2496 (0.784), PendingHit = 243 (0.0764)
Cache L1D_010:	Size = 16384 B (32 Set x 4-way x 128 byte line)
		Access = 3186, Miss = 2462 (0.773), PendingHit = 252 (0.0791)
Cache L1D_011:	Size = 16384 B (32 Set x 4-way x 128 byte line)
		Access = 5858, Miss = 4808 (0.821), PendingHit = 318 (0.0543)
Cache L1D_012:	Size = 16384 B (32 Set x 4-way x 128 byte line)
		Access = 5350, Miss = 4407 (0.824), PendingHit = 291 (0.0544)
Cache L1D_013:	Size = 16384 B (32 Set x 4-way x 128 byte line)
		Access = 2928, Miss = 2428 (0.829), PendingHit = 216 (0.0738)
total_dl1_misses=51463
total_dl1_accesses=62958
total_dl1_miss_rate= 0.817418
Shader 0 dynamic_warp_id issue ditsribution:
dynamic_warp_id:
0, 1, 2, 3, 4, 5, 6, 7, 8, 9, 10, 11, 12, 13, 14, 15, 16, 17, 18, 19, 20, 21, 22, 23, 24, 25, 26, 27, 28, 29, 30, 31, 32, 33, 34, 35, 36, 37, 38, 39, 40, 41, 42, 43, 44, 45, 46, 47, 48, 49, 50, 51, 52, 53, 54, 55, 56, 57, 58, 59, 60, 61, 62, 63, 64, 65, 66, 67, 68, 69, 70, 71, 72, 73, 74, 75, 76, 77, 78, 79, 80, 81, 82, 83, 84, 85, 86, 87, 88, 89, 90, 91, 92, 93, 94, 95, 96, 97, 98, 99, 100, 101, 102, 103, 104, 105, 106, 107, 108, 109, 110, 111, 112, 113, 114, 115, 116, 117, 118, 119, 120, 121, 122, 123, 124, 125, 126, 127, 128, 129, 130, 131, 132, 133, 134, 135, 136, 137, 138, 139, 140, 141, 142, 143, 144, 145, 146, 147, 148, 149, 150, 151, 152, 153, 154, 155, 156, 157, 158, 159, 160, 161, 162, 163, 164, 165, 166, 167, 168, 169, 170, 171, 172, 173, 174, 175, 176, 177, 178, 179, 180, 181, 182, 183, 184, 185, 186, 187, 188, 189, 190, 191, 
distro:
269, 201, 188, 188, 175, 175, 175, 175, 162, 162, 162, 162, 162, 162, 162, 162, 269, 201, 188, 188, 175, 175, 175, 175, 162, 162, 162, 162, 162, 162, 162, 162, 269, 201, 188, 188, 175, 175, 175, 175, 162, 162, 162, 162, 162, 162, 162, 162, 269, 201, 188, 188, 175, 175, 175, 175, 162, 162, 162, 162, 162, 162, 162, 162, 269, 201, 188, 188, 175, 175, 175, 175, 162, 162, 162, 162, 162, 162, 162, 162, 269, 201, 188, 188, 175, 175, 175, 175, 162, 162, 162, 162, 162, 162, 162, 162, 507, 507, 507, 507, 507, 507, 507, 507, 507, 507, 507, 507, 507, 507, 507, 507, 507, 507, 507, 507, 507, 507, 507, 507, 507, 507, 507, 507, 507, 507, 507, 507, 507, 507, 507, 507, 507, 507, 507, 507, 507, 507, 507, 507, 507, 507, 507, 507, 507, 507, 507, 507, 507, 507, 507, 507, 507, 507, 507, 507, 507, 507, 507, 507, 507, 507, 507, 507, 507, 507, 507, 507, 507, 507, 507, 507, 507, 507, 507, 507, 507, 507, 507, 507, 507, 507, 507, 507, 507, 507, 507, 507, 507, 507, 507, 507, 
gpgpu_n_tot_thrd_icount = 22693376
gpgpu_n_tot_w_icount = 709168
gpgpu_n_icache_hits = 368800
gpgpu_n_icache_misses = 16632
gpgpu_n_l1dcache_read_hits = 7743
gpgpu_n_l1dcache_read_misses = 55215
gpgpu_n_l1dcache_write_accesses = 154440
gpgpu_n_l1dcache_wirte_misses = 154440
gpgpu_n_tcache_hits = 0
gpgpu_n_tcache_misses = 0
gpgpu_n_ccache_hits = 55728
gpgpu_n_ccache_misses = 448
gpgpu_n_stall_shd_mem = 3531272
gpgpu_n_mem_read_local = 0
gpgpu_n_mem_write_local = 0
gpgpu_n_mem_read_global = 51591
gpgpu_n_mem_write_global = 154440
gpgpu_n_mem_texture = 0
gpgpu_n_mem_const = 14
gpgpu_n_load_insn  = 1553984
gpgpu_n_store_insn = 2071680
gpgpu_n_shmem_insn = 782208
gpgpu_n_tex_insn = 0
gpgpu_n_const_mem_insn = 0
gpgpu_n_param_mem_insn = 3498476
gpgpu_n_shmem_bkconflict = 0
gpgpu_n_cache_bkconflict = 0
gpgpu_n_intrawarp_mshr_merge = 0
gpgpu_n_cmem_portconflict = 3199
gpgpu_stall_shd_mem[c_mem][bk_conf] = 3199
gpgpu_stall_shd_mem[c_mem][mshr_rc] = 0
gpgpu_stall_shd_mem[c_mem][icnt_rc] = 0
gpgpu_stall_shd_mem[t_mem][mshr_rc] = 0
gpgpu_stall_shd_mem[t_mem][icnt_rc] = 0
gpgpu_stall_shd_mem[s_mem][bk_conf] = 0
gpgpu_stall_shd_mem[gl_mem][bk_conf] = 0
gpgpu_stall_shd_mem[gl_mem][coal_stall] = 3528073
gpgpu_stall_shd_mem[g_mem_ld][mshr_rc] = 0
gpgpu_stall_shd_mem[g_mem_ld][icnt_rc] = 0
gpgpu_stall_shd_mem[g_mem_ld][wb_icnt_rc] = 0
gpgpu_stall_shd_mem[g_mem_ld][wb_rsrv_fail] = 0
gpgpu_stall_shd_mem[g_mem_st][mshr_rc] = 0
gpgpu_stall_shd_mem[g_mem_st][icnt_rc] = 0
gpgpu_stall_shd_mem[g_mem_st][wb_icnt_rc] = 0
gpgpu_stall_shd_mem[g_mem_st][wb_rsrv_fail] = 0
gpgpu_stall_shd_mem[l_mem_ld][mshr_rc] = 0
gpgpu_stall_shd_mem[l_mem_ld][icnt_rc] = 0
gpgpu_stall_shd_mem[l_mem_ld][wb_icnt_rc] = 0
gpgpu_stall_shd_mem[l_mem_ld][wb_rsrv_fail] = 0
gpgpu_stall_shd_mem[l_mem_st][mshr_rc] = 0
gpgpu_stall_shd_mem[l_mem_st][icnt_rc] = 0
gpgpu_stall_shd_mem[l_mem_ld][wb_icnt_rc] = 0
gpgpu_stall_shd_mem[l_mem_ld][wb_rsrv_fail] = 0
gpu_reg_bank_conflict_stalls = 0
Warp Occupancy Distribution:
Stall:5565007	W0_Idle:1357941	W0_Scoreboard:128510	W1:1472	W2:512	W3:0	W4:512	W5:0	W6:0	W7:1088	W8:512	W9:0	W10:0	W11:0	W12:0	W13:0	W14:0	W15:0	W16:512	W17:0	W18:32955	W19:0	W20:0	W21:0	W22:0	W23:0	W24:0	W25:0	W26:0	W27:0	W28:0	W29:0	W30:0	W31:0	W32:671605
maxmrqlatency = 991 
maxdqlatency = 0 
maxmflatency = 2650 
averagemflatency = 935 
max_icnt2mem_latency = 5313 
max_icnt2sh_latency = 328068 
mrq_lat_table:33594 	18819 	2946 	5217 	14311 	36298 	60672 	53532 	19033 	856 	0 	0 	0 	0 	0 	0 	0 	0 	0 	0 	0 	0 	0 	0 	0 	0 	0 	0 	0 	0 	0 	0 	
dq_lat_table:0 	0 	0 	0 	0 	0 	0 	0 	0 	0 	0 	0 	0 	0 	0 	0 	0 	0 	0 	0 	0 	0 	0 	0 	0 	0 	0 	0 	0 	0 	0 	0 	
mf_lat_table:0 	0 	0 	0 	0 	0 	671 	5070 	16555 	102802 	80625 	322 	0 	0 	0 	0 	0 	0 	0 	0 	0 	0 	0 	0 	0 	0 	0 	0 	0 	0 	0 	0 	
icnt2mem_lat_table:187 	5391 	1145 	2496 	17410 	27178 	19363 	23859 	51868 	54545 	3623 	95 	9 	0 	0 	0 	0 	0 	0 	0 	0 	0 	0 	0 	
icnt2sh_lat_table:78 	44492 	4317 	2567 	151 	0 	0 	0 	0 	0 	0 	0 	0 	0 	8390 	18148 	31120 	65791 	30991 	0 	0 	0 	0 	0 	
mf_lat_pw_table:0 	0 	0 	0 	0 	0 	4 	7 	17 	317 	302 	0 	0 	0 	0 	0 	0 	0 	0 	0 	0 	0 	0 	0 	0 	0 	0 	0 	0 	0 	0 	0 	
maximum concurrent accesses to same row:
dram[0]:        21        41        45        16        25        30        24        40        25        25        41        24        53        27        21        47 
dram[1]:        21        34        34        21        22        27        21        41        24        34        55        21        55        29        23        35 
dram[2]:        20        33        47        25        21        45        24        41        24        39        37        23        53        23        32        34 
dram[3]:        20        26        53        21        24        60        20        45        27        41        26        21        44        30        28        27 
dram[4]:        25        35        41        31        23        46        19        47        21        40        28        21        37        26        24        39 
maximum service time to same row:
dram[0]:      3775      8723      8320      8564     17067      7461      9804     10603      6465      6553     10574      6068      9544      7384      6348      5879 
dram[1]:      4330      8679      7996      9337     14857      7379      3699     10569      6345      6808     10593      5972     10542      7351      6352      5584 
dram[2]:      5854      8728      8098      9443     15081      8624     11184     10573      6356      7889     10606      6302      9975      7318      6318      6272 
dram[3]:      5567      8717      9331      8830      9294      9317      5697     10591      6332      7426     10603      6032      7665      7027      7189      5072 
dram[4]:      4796      8721      7831      8810     18159      7365     11062     10603      6734      6457     10570      6104      9731      7132      6424      5732 
average row accesses per activate:
dram[0]:  4.028807  4.397678  4.045961  4.191977  4.107612  4.179319  4.018182  4.342466  4.117723  4.051316  4.290148  4.017391  4.031788  3.863103  4.121820  4.151989 
dram[1]:  4.023161  4.477876  3.891856  4.348665  3.980867  4.360054  3.971613  4.184106  4.122876  4.254121  4.225634  4.146183  4.001321  3.743949  4.339860  4.126939 
dram[2]:  4.001351  4.298023  3.890957  4.227666  4.198391  4.326613  4.131544  4.403900  4.288828  4.123324  4.343407  4.259947  3.917419  3.801546  4.306630  4.045770 
dram[3]:  3.942971  4.253501  4.141243  4.286136  4.252388  4.313593  4.230663  4.552518  4.259810  4.253793  4.388659  4.179922  4.065508  3.990541  4.191316  4.099440 
dram[4]:  4.062928  4.352685  4.085794  4.115493  4.073298  4.436718  4.144385  4.529244  4.035897  4.215259  4.244000  4.079545  4.010526  3.842986  4.251374  4.162889 
average row locality = 245278/59025 = 4.155493
number of total memory accesses made:
dram[0]:         0         0         0         0         0         0         0         0         0         0         0         0         0         0         0         0 
dram[1]:         0         0         0         0         0         0         0         0         0         0         0         0         0         0         0         0 
dram[2]:         0         0         0         0         0         0         0         0         0         0         0         0         0         0         0         0 
dram[3]:         0         0         0         0         0         0         0         0         0         0         0         0         0         0         0         0 
dram[4]:         0         0         0         0         0         0         0         0         0         0         0         0         0         0         0         0 
total accesses: 0
min_bank_accesses = 0!
min_chip_accesses = 0!
number of total read accesses:
dram[0]:      1249      1281      1223      1202      1286      1310      1256      1297      1304      1264      1311      1360      1268      1215      1307      1242 
dram[1]:      1252      1295      1233      1212      1285      1323      1247      1294      1289      1259      1295      1350      1253      1203      1310      1250 
dram[2]:      1264      1300      1236      1211      1292      1318      1243      1286      1279      1251      1294      1354      1253      1216      1325      1255 
dram[3]:      1265      1292      1235      1188      1273      1305      1234      1286      1282      1259      1306      1358      1263      1221      1316      1260 
dram[4]:      1263      1272      1223      1192      1277      1299      1254      1296      1290      1265      1314      1366      1267      1232      1320      1255 
total reads: 101830
bank skew: 1366/1188 = 1.15
chip skew: 20385/20343 = 1.00
number of total write accesses:
dram[0]:      1688      1749      1682      1724      1844      1883      1838      1873      1879      1815      1868      1874      1776      1748      1772      1681 
dram[1]:      1701      1741      1682      1719      1836      1886      1831      1865      1865      1838      1870      1855      1776      1736      1793      1676 
dram[2]:      1697      1743      1690      1723      1840      1901      1835      1876      1869      1825      1868      1858      1783      1734      1793      1662 
dram[3]:      1708      1745      1697      1718      1844      1900      1829      1878      1866      1825      1867      1848      1778      1732      1773      1667 
dram[4]:      1707      1727      1682      1730      1835      1891      1846      1879      1858      1829      1869      1865      1781      1754      1775      1684 
total reads: 143448
bank skew: 1901/1662 = 1.14
chip skew: 28712/28670 = 1.00
average mf latency per bank:
dram[0]:        758       773       786       781       812       792       790       776       783       801       777       763       774       803       807       783
dram[1]:        769       782       796       775       819       791       793       790       775       799       768       786       778       813       787       799
dram[2]:        779       779       802       773       803       791       799       775       780       786       758       777       794       809       770       788
dram[3]:        770       768       775       775       792       781       795       768       768       788       759       787       787       818       783       793
dram[4]:        765       780       780       780       799       792       790       785       775       800       782       783       782       821       794       790
maximum mf latency per bank:
dram[0]:       1956      1968      2297      1994      2353      2169      2271      2129      2075      2435      2080      2058      2035      2129      2457      2358
dram[1]:       2085      2267      1924      2114      2303      2309      2162      2160      2085      2060      2067      2043      1976      1934      2060      2345
dram[2]:       2185      2360      2219      2292      2650      2210      2364      2240      2337      2161      2168      2150      2210      2189      1981      2061
dram[3]:       2247      2153      1949      2086      2318      2091      2138      2111      2074      2065      2511      1990      2218      2181      2300      2148
dram[4]:       2321      2051      2315      1994      2337      2265      2343      2078      2085      2398      2066      2197      2250      2171      2190      2122

Number of Memory Banks Accessed per Memory Operation per Warp (from 0):
0	0	0	0	0	0	0	0	0	0	0	0	0	0	0	0	0	0	0	0	0	0	0	0	0	0	0	0	0	0	0	0	0	0	0	0	0	0	0	0	0	0	0	0	0	0	0	0	0	0	0	0	0	0	0	0	0	0	0	0	0	0	0	0	0	0	0	0	0	0	0	0	0	0	0	0	0	0	0	0	
Average # of Memory Banks Accessed per Memory Operation per Warp=-nan

position of mrq chosen
0	0	0	0	0	0	0	0	0	0	0	0	0	0	0	0	

average position of mrq chosen = -nan
gpgpu_l2_write_miss = 0
gpgpu_l2_write_access = 0
gpgpu_l2_read_miss = 0
gpgpu_l2_read_access = 0
Cache L2_bank_000:
MSHR contents

DRAM[0]: 16 bks, busW=4 BL=8 CL=12, tRRD=2 tCCD=6, tRCD=12 tRAS=28 tRP=12 tRC=40
n_cmd=246051 n_nop=151211 n_act=11913 n_pre=11897 n_req=49069 n_rd=40750 n_write=30280 bw_util=0.5774
n_activity=236338 dram_eff=0.6011
bk0: 2498a 170449i bk1: 2562a 167604i bk2: 2446a 165104i bk3: 2404a 166236i bk4: 2572a 167531i bk5: 2620a 163205i bk6: 2512a 165293i bk7: 2594a 165961i bk8: 2608a 162190i bk9: 2528a 160123i bk10: 2622a 162784i bk11: 2720a 158337i bk12: 2536a 153285i bk13: 2430a 151966i bk14: 2614a 138465i bk15: 2484a 100787i 
dram_util_bins: 0 0 0 0 0 0 0 0 0 0
dram_eff_bins: 0 0 0 0 0 0 0 0 0 0
mrqq: max=16 avg=14.5053
Cache L2_bank_001:
MSHR contents

DRAM[1]: 16 bks, busW=4 BL=8 CL=12, tRRD=2 tCCD=6, tRCD=12 tRAS=28 tRP=12 tRC=40
n_cmd=246051 n_nop=151365 n_act=11867 n_pre=11851 n_req=49020 n_rd=40700 n_write=30268 bw_util=0.5769
n_activity=236426 dram_eff=0.6003
bk0: 2504a 169672i bk1: 2590a 168359i bk2: 2466a 164168i bk3: 2424a 165012i bk4: 2570a 167997i bk5: 2646a 164877i bk6: 2494a 164177i bk7: 2588a 165563i bk8: 2578a 162533i bk9: 2518a 160406i bk10: 2590a 164029i bk11: 2700a 158306i bk12: 2506a 153609i bk13: 2406a 150507i bk14: 2620a 137593i bk15: 2500a 100934i 
dram_util_bins: 0 0 0 0 0 0 0 0 0 0
dram_eff_bins: 0 0 0 0 0 0 0 0 0 0
mrqq: max=16 avg=14.5421
Cache L2_bank_002:
MSHR contents

DRAM[2]: 16 bks, busW=4 BL=8 CL=12, tRRD=2 tCCD=6, tRCD=12 tRAS=28 tRP=12 tRC=40
n_cmd=246051 n_nop=151414 n_act=11806 n_pre=11790 n_req=49074 n_rd=40754 n_write=30287 bw_util=0.5774
n_activity=236443 dram_eff=0.6009
bk0: 2528a 170876i bk1: 2600a 168389i bk2: 2472a 165511i bk3: 2422a 165579i bk4: 2584a 167499i bk5: 2636a 163957i bk6: 2486a 164355i bk7: 2572a 165773i bk8: 2558a 163170i bk9: 2502a 161513i bk10: 2588a 162812i bk11: 2708a 159347i bk12: 2506a 154387i bk13: 2432a 150938i bk14: 2650a 138917i bk15: 2510a 101796i 
dram_util_bins: 0 0 0 0 0 0 0 0 0 0
dram_eff_bins: 0 0 0 0 0 0 0 0 0 0
mrqq: max=16 avg=14.6306
Cache L2_bank_003:
MSHR contents

DRAM[3]: 16 bks, busW=4 BL=8 CL=12, tRRD=2 tCCD=6, tRCD=12 tRAS=28 tRP=12 tRC=40
n_cmd=246051 n_nop=151821 n_act=11642 n_pre=11626 n_req=49018 n_rd=40686 n_write=30276 bw_util=0.5768
n_activity=236374 dram_eff=0.6004
bk0: 2530a 170621i bk1: 2584a 169057i bk2: 2470a 165932i bk3: 2376a 166038i bk4: 2546a 168011i bk5: 2610a 165003i bk6: 2468a 164916i bk7: 2572a 166326i bk8: 2564a 164046i bk9: 2518a 161602i bk10: 2612a 164067i bk11: 2716a 158799i bk12: 2526a 153973i bk13: 2442a 152210i bk14: 2632a 139880i bk15: 2520a 102020i 
dram_util_bins: 0 0 0 0 0 0 0 0 0 0
dram_eff_bins: 0 0 0 0 0 0 0 0 0 0
mrqq: max=16 avg=14.535
Cache L2_bank_004:
MSHR contents

DRAM[4]: 16 bks, busW=4 BL=8 CL=12, tRRD=2 tCCD=6, tRCD=12 tRAS=28 tRP=12 tRC=40
n_cmd=246051 n_nop=151405 n_act=11800 n_pre=11784 n_req=49097 n_rd=40770 n_write=30292 bw_util=0.5776
n_activity=236584 dram_eff=0.6007
bk0: 2526a 171038i bk1: 2544a 168930i bk2: 2446a 166131i bk3: 2384a 167304i bk4: 2554a 168478i bk5: 2598a 165223i bk6: 2508a 164616i bk7: 2592a 166292i bk8: 2580a 163094i bk9: 2530a 160283i bk10: 2628a 163505i bk11: 2732a 157362i bk12: 2534a 153626i bk13: 2464a 150935i bk14: 2640a 138597i bk15: 2510a 102032i 
dram_util_bins: 0 0 0 0 0 0 0 0 0 0
dram_eff_bins: 0 0 0 0 0 0 0 0 0 0
mrqq: max=16 avg=14.5284
Cache L2_bank_000:	Size = 131072 B (64 Set x 16-way x 128 byte line)
		Access = 41426, Miss = 20375 (0.492), PendingHit = 16059 (0.388)
Cache L2_bank_001:	Size = 131072 B (64 Set x 16-way x 128 byte line)
		Access = 41385, Miss = 20350 (0.492), PendingHit = 16039 (0.388)
Cache L2_bank_002:	Size = 131072 B (64 Set x 16-way x 128 byte line)
		Access = 41398, Miss = 20377 (0.492), PendingHit = 16068 (0.388)
Cache L2_bank_003:	Size = 131072 B (64 Set x 16-way x 128 byte line)
		Access = 41500, Miss = 20343 (0.49), PendingHit = 16065 (0.387)
Cache L2_bank_004:	Size = 131072 B (64 Set x 16-way x 128 byte line)
		Access = 41460, Miss = 20385 (0.492), PendingHit = 16082 (0.388)
L2 Cache Total Miss Rate = 0.492

icnt_total_pkts_mem_to_simt=417673
icnt_total_pkts_simt_to_mem=361609

LD_mem_lat_dist  0 0 0 0 0 0 0 0 0 0 0 0 0 0 0 0 0 0 0 0 0 0 0 0 0 0 0
ST_mem_lat_dist  0 0 0 0 0 0 0 0 0 0 0 0 0 0 0 0 0 0 0 0 0 0 0 0 0 0 0
Traffic 0 Stat
%=================================
% Average latency = 374.988
% Accepted packets = 0 at node 0 (avg = 0.0247209)
lat(3) = 374.988;
thru(3,:) = [ 0 0 0 0 0 0 0 0 0 0 0 0 0 0 0.113723 0.113661 0.113714 0.113696 0.113786 0 0 0 0 ];
% latency change    = 0.971649
% throughput change = 1.0763
Traffic 1 Stat
%=================================
% Average latency = 2.09492
% Accepted packets = 0 at node 14 (avg = 0.0263558)
lat(4) = 2.09492;
thru(4,:) = [ 0.056959 0.0572326 0.0282542 0.0565728 0.0434402 0.0284554 0.0546659 0.056428 0.0278841 0.028391 0.028037 0.0558728 0.055543 0.0284473 0 0 0 0 0 0 0 0 0 ];
% latency change    = 177.999
% throughput change = 0.0620334
----------------------------Interconnect-DETAILS---------------------------------=======Traffic[0]class0 ======
Traffic[0]class0Overall average latency = 223.81 (2 samples)
Traffic[0]class0Overall average accepted rate = 0.017625 (2 samples)
Traffic[0]class0Overall min accepted rate = 0 (2 samples)
traffic_manager/latency_stat_0_freq = [ 0 1581 1475 147 175 110 158 108 168 131 155 134 169 243 268 444 2175 2608 1579 1559 1768 1589 1705 1713 1877 1903 1827 1829 1903 1902 1849 1823 1828 1822 1766 1711 1621 1595 1488 1485 1445 1402 1381 1354 1209 1184 1132 1122 1157 1126 1032 969 955 930 855 844 741 794 741 806 644 686 666 626 649 638 609 634 530 573 535 542 507 533 436 441 418 503 431 446 405 400 399 418 373 397 380 385 333 337 365 307 315 300 293 285 289 253 277 273 251 247 262 235 282 270 243 253 223 247 177 210 200 233 184 211 196 212 163 167 183 170 190 188 166 188 196 169 170 172 166 172 124 177 169 169 183 173 162 157 152 141 169 150 165 155 188 166 186 138 174 167 162 156 149 131 174 128 164 153 154 160 169 141 189 136 149 153 123 153 186 152 138 178 147 183 156 172 159 155 140 118 153 144 146 159 160 142 143 158 172 148 179 146 142 172 109 138 141 146 157 184 155 149 139 143 175 178 163 157 163 156 170 141 134 157 138 147 126 123 151 161 133 137 150 121 128 129 140 132 131 155 113 143 147 103 125 134 107 111 141 128 143 104 117 131 130 147 118 129 119 122 134 128 104 150 113 130 123 139 101 116 118 116 109 97 122 107 98 133 113 102 113 105 110 126 131 119 120 137 124 121 133 119 110 111 96 132 117 136 109 125 119 115 119 110 125 126 132 122 119 117 120 145 117 132 107 104 101 96 99 130 117 135 117 148 124 119 141 114 115 125 130 95 112 119 85 115 110 129 103 106 104 103 122 130 93 134 145 103 104 137 102 102 102 94 106 108 116 115 94 116 91 107 107 123 111 118 101 103 113 103 107 119 112 102 121 98 98 104 110 108 103 105 114 109 101 95 84 110 74 91 115 95 109 124 105 114 105 135 118 93 98 99 120 96 80 118 107 112 103 119 99 108 115 97 104 88 119 115 139 91 107 114 109 101 86 116 107 117 112 122 103 96 125 109 108 123 109 107 116 92 117 108 124 106 114 95 103 88 110 98 95 113 105 114 113 113 107 106 121 97 135 126 94 116 104 119 126 103 127 103 114 116 107 101 104 105 121 110 119 113 105 121 119 130 124 111 90 98 118 122 112 78 126 109 100 107 99 108 97 95 95 90 104 103 102 79 80 92 77 82 88 87 79 98 127 103 101 95 109 93 101 101 91 94 75 91 95 85 93 99 85 81 89 92 69 81 102 82 82 83 82 97 91 98 92 99 80 113 102 84 101 82 75 84 90 92 93 120 83 109 85 92 84 112 110 96 72 74 88 100 88 80 80 91 92 107 121 105 93 87 100 96 88 75 93 92 120 74 94 119 81 85 93 102 102 90 100 88 103 85 91 90 76 80 101 96 87 78 75 74 94 78 87 88 90 85 92 92 98 91 84 106 94 71 76 76 98 110 80 86 86 87 86 82 81 84 84 80 85 91 66 103 80 87 101 71 71 91 76 89 75 89 79 107 67 71 85 82 68 56 76 72 89 60 75 75 79 65 75 57 77 90 72 70 83 84 89 73 84 62 74 91 83 82 76 83 73 84 89 59 82 82 71 68 55 77 68 77 60 87 77 74 59 79 92 105 88 87 88 85 75 73 89 70 87 69 73 78 76 77 73 85 76 75 65 71 59 68 89 69 75 66 67 56 66 64 67 76 72 76 61 79 65 86 70 71 67 72 70 70 70 61 66 63 85 70 85 46 60 77 60 73 71 80 67 76 61 74 77 72 67 70 89 75 61 65 73 65 78 59 87 89 68 87 71 81 59 76 55 79 75 73 70 66 78 73 66 79 53 70 70 91 66 66 77 83 69 69 80 87 79 84 71 72 87 74 77 90 65 82 71 78 70 92 76 64 75 83 64 69 74 66 68 65 82 83 68 74 74 71 81 76 86 84 57 65 75 68 72 60 78 77 80 71 87 73 75 73 68 66 61 62 80 58 53 66 52 63 63 52 55 61 47 64 76 65 66 55 55 56 69 61 66 62 62 60 62 76 47 40 63 68 43 63 70 69 59 60 64 55 62 60 63 47 62 50 48 54 45 59 48 57 60 55 54 64 46 53 55 71 43 71 49 59 52 71 59 69 54 63 68 52 62 58 51 67 64 62 49 55 59 62 60 67 64 58 53 66 49 92 65 52 54 58 54 71 45 69 41 66 63 64 40 51 64 52 50 66 39 53 49 67 53 59 63 68 52 42 62 43 53 61 64 57 65 70 51 76 66 62 54 64 52 52 65 67 61 65 53 55 46 58 55 43 69 58 47 22497 ];
Traffic[0]class1Average hops = 1 (207169 samples)
traffic_manager/hop_stats_freq = [ 0 207169 0 0 0 0 0 0 0 0 0 0 0 0 0 0 0 0 0 0 ];
=======Traffic[1]class0 ======
Traffic[1]class0Overall average latency = 6.36303 (2 samples)
Traffic[1]class0Overall average accepted rate = 0.0388418 (2 samples)
Traffic[1]class0Overall min accepted rate = 0 (2 samples)
traffic_manager/latency_stat_0_freq = [ 0 143295 6010 939 1854 39943 3396 652 1209 452 748 144 54 64 41 27 20 6 11 6 7 5 2 0 2 4 1 0 0 0 0 0 0 0 0 0 0 0 0 0 0 0 0 0 0 0 0 0 0 0 0 0 0 0 0 0 0 0 0 0 0 0 0 0 0 0 0 0 0 0 0 0 0 0 0 0 0 0 0 0 0 0 0 0 0 0 0 0 0 0 0 0 0 0 0 0 0 0 0 0 0 0 0 0 0 0 0 0 0 0 0 0 0 0 0 0 0 0 0 0 0 0 0 0 0 0 0 0 0 0 0 0 0 0 0 0 0 0 0 0 0 0 0 0 0 0 0 0 0 0 0 0 0 0 0 0 0 0 0 0 0 0 0 0 0 0 0 0 0 0 0 0 0 0 0 0 0 0 0 0 0 0 0 0 0 0 0 0 0 0 0 0 0 0 0 0 0 0 0 0 0 0 0 0 0 0 0 0 0 0 0 0 0 0 0 0 0 0 0 0 0 0 0 0 0 0 0 0 0 0 0 0 0 0 0 0 0 0 0 0 0 0 0 0 0 0 0 0 0 0 0 0 0 0 0 0 0 0 0 0 0 0 0 0 0 0 0 0 0 0 0 0 0 0 0 0 0 0 0 0 0 0 0 0 0 0 0 0 0 0 0 0 0 0 0 0 0 0 0 0 0 0 0 0 0 0 0 0 0 0 0 0 0 0 0 0 0 0 0 0 0 0 0 0 0 0 0 0 0 0 0 0 0 0 0 0 0 0 0 0 0 0 0 0 0 0 0 0 0 0 0 0 0 0 0 0 0 0 0 0 0 0 0 0 0 0 0 0 0 0 0 0 0 0 0 0 0 0 0 0 0 0 0 0 0 0 0 0 0 0 0 0 0 0 0 0 0 0 0 0 0 0 0 0 0 0 0 0 0 0 0 0 0 0 0 0 0 0 0 0 0 0 0 0 0 0 0 0 0 0 0 0 0 0 0 0 0 0 0 0 0 0 0 0 0 0 0 0 0 0 0 0 0 0 0 0 0 0 0 0 0 0 0 0 0 0 0 0 0 0 0 0 0 0 0 0 0 0 0 0 0 0 0 0 0 0 0 0 0 0 0 0 0 0 0 0 0 0 0 0 0 0 0 0 0 0 0 0 0 0 0 0 0 0 0 0 0 0 0 0 0 0 0 0 0 0 0 0 0 0 0 0 0 0 0 0 0 0 0 0 0 0 0 0 0 0 0 0 0 0 0 0 0 0 0 0 0 0 0 0 0 0 0 0 0 0 0 0 0 0 0 0 0 0 0 0 0 0 0 0 0 0 0 0 0 0 0 0 0 0 0 0 0 0 0 0 0 0 0 0 0 0 0 0 0 0 0 0 0 0 0 0 0 0 0 0 0 0 0 0 0 0 0 0 0 0 0 0 0 0 0 0 0 0 0 0 0 0 0 0 0 0 0 0 0 0 0 0 0 0 0 0 0 0 0 0 0 0 0 0 0 0 0 0 0 0 0 0 0 0 0 0 0 0 0 0 0 0 0 0 0 0 0 0 0 0 0 0 0 0 0 0 0 0 0 0 0 0 0 0 0 0 0 0 0 0 0 0 0 0 0 0 0 0 0 0 0 0 0 0 0 0 0 0 0 0 0 0 0 0 0 0 0 0 0 0 0 0 0 0 0 0 0 0 0 0 0 0 0 0 0 0 0 0 0 0 0 0 0 0 0 0 0 0 0 0 0 0 0 0 0 0 0 0 0 0 0 0 0 0 0 0 0 0 0 0 0 0 0 0 0 0 0 0 0 0 0 0 0 0 0 0 0 0 0 0 0 0 0 0 0 0 0 0 0 0 0 0 0 0 0 0 0 0 0 0 0 0 0 0 0 0 0 0 0 0 0 0 0 0 0 0 0 0 0 0 0 0 0 0 0 0 0 0 0 0 0 0 0 0 0 0 0 0 0 0 0 0 0 0 0 0 0 0 0 0 0 0 0 0 0 0 0 0 0 0 0 0 0 0 0 0 0 0 0 0 0 0 0 0 0 0 0 0 0 0 0 0 0 0 0 0 0 0 0 0 0 0 0 0 0 0 0 0 0 0 0 0 0 0 0 0 0 0 0 0 0 0 0 0 0 0 0 0 0 0 0 0 0 0 0 0 0 0 0 0 0 0 0 0 0 0 0 0 0 0 0 0 0 0 0 0 0 0 0 0 0 0 0 0 0 0 0 0 0 0 0 0 0 0 0 0 0 0 0 0 0 0 0 0 ];
Traffic[1]class1Average hops = 1 (207169 samples)
traffic_manager/hop_stats_freq = [ 0 207169 0 0 0 0 0 0 0 0 0 0 0 0 0 0 0 0 0 0 ];
----------------------------END-of-Interconnect-DETAILS-------------------------

gpgpu_simulation_time = 0 days, 0 hrs, 2 min, 38 sec (158 sec)
gpgpu_simulation_rate = 135408 (inst/sec)
gpgpu_simulation_rate = 2076 (cycle/sec)

kernel '_Z17histo_main_kernelP6uchar4jjjjjPjS1_S1_' transfer to GPU hardware scheduler
kernel_name = _Z17histo_main_kernelP6uchar4jjjjjPjS1_S1_ 
kernel_launch_uid = 3 
gpu_sim_cycle = 510494
gpu_sim_insn = 157206464
gpu_ipc =     307.9497
gpu_tot_sim_cycle = 838563
gpu_tot_sim_insn = 178600998
gpu_tot_ipc =     212.9846
gpu_tot_issued_cta = 0
gpu_stall_dramfull = 1026066
gpu_stall_icnt2sh    = 558760
gpu_total_sim_rate=294721
Cache L1D_000:	Size = 16384 B (32 Set x 4-way x 128 byte line)
		Access = 135144, Miss = 35108 (0.26), PendingHit = 99420 (0.736)
Cache L1D_001:	Size = 16384 B (32 Set x 4-way x 128 byte line)
		Access = 134714, Miss = 34680 (0.257), PendingHit = 99522 (0.739)
Cache L1D_002:	Size = 16384 B (32 Set x 4-way x 128 byte line)
		Access = 132718, Miss = 32559 (0.245), PendingHit = 99600 (0.75)
Cache L1D_003:	Size = 16384 B (32 Set x 4-way x 128 byte line)
		Access = 134902, Miss = 34614 (0.257), PendingHit = 99574 (0.738)
Cache L1D_004:	Size = 16384 B (32 Set x 4-way x 128 byte line)
		Access = 134616, Miss = 33893 (0.252), PendingHit = 99634 (0.74)
Cache L1D_005:	Size = 16384 B (32 Set x 4-way x 128 byte line)
		Access = 132974, Miss = 33013 (0.248), PendingHit = 99399 (0.748)
Cache L1D_006:	Size = 16384 B (32 Set x 4-way x 128 byte line)
		Access = 135080, Miss = 34404 (0.255), PendingHit = 99665 (0.738)
Cache L1D_007:	Size = 16384 B (32 Set x 4-way x 128 byte line)
		Access = 134836, Miss = 32257 (0.239), PendingHit = 101760 (0.755)
Cache L1D_008:	Size = 16384 B (32 Set x 4-way x 128 byte line)
		Access = 132606, Miss = 32514 (0.245), PendingHit = 99487 (0.75)
Cache L1D_009:	Size = 16384 B (32 Set x 4-way x 128 byte line)
		Access = 132910, Miss = 32608 (0.245), PendingHit = 99723 (0.75)
Cache L1D_010:	Size = 16384 B (32 Set x 4-way x 128 byte line)
		Access = 132466, Miss = 32462 (0.245), PendingHit = 99395 (0.75)
Cache L1D_011:	Size = 16384 B (32 Set x 4-way x 128 byte line)
		Access = 135458, Miss = 34888 (0.258), PendingHit = 99705 (0.736)
Cache L1D_012:	Size = 16384 B (32 Set x 4-way x 128 byte line)
		Access = 134790, Miss = 34461 (0.256), PendingHit = 99549 (0.739)
Cache L1D_013:	Size = 16384 B (32 Set x 4-way x 128 byte line)
		Access = 132464, Miss = 32508 (0.245), PendingHit = 99536 (0.751)
total_dl1_misses=469969
total_dl1_accesses=1875678
total_dl1_miss_rate= 0.250560
Shader 0 dynamic_warp_id issue ditsribution:
dynamic_warp_id:
0, 1, 2, 3, 4, 5, 6, 7, 8, 9, 10, 11, 12, 13, 14, 15, 16, 17, 18, 19, 20, 21, 22, 23, 24, 25, 26, 27, 28, 29, 30, 31, 32, 33, 34, 35, 36, 37, 38, 39, 40, 41, 42, 43, 44, 45, 46, 47, 48, 49, 50, 51, 52, 53, 54, 55, 56, 57, 58, 59, 60, 61, 62, 63, 64, 65, 66, 67, 68, 69, 70, 71, 72, 73, 74, 75, 76, 77, 78, 79, 80, 81, 82, 83, 84, 85, 86, 87, 88, 89, 90, 91, 92, 93, 94, 95, 96, 97, 98, 99, 100, 101, 102, 103, 104, 105, 106, 107, 108, 109, 110, 111, 112, 113, 114, 115, 116, 117, 118, 119, 120, 121, 122, 123, 124, 125, 126, 127, 128, 129, 130, 131, 132, 133, 134, 135, 136, 137, 138, 139, 140, 141, 142, 143, 144, 145, 146, 147, 148, 149, 150, 151, 152, 153, 154, 155, 156, 157, 158, 159, 160, 161, 162, 163, 164, 165, 166, 167, 168, 169, 170, 171, 172, 173, 174, 175, 176, 177, 178, 179, 180, 181, 182, 183, 184, 185, 186, 187, 188, 189, 190, 191, 192, 193, 194, 195, 196, 197, 198, 199, 200, 201, 202, 203, 204, 205, 206, 207, 208, 209, 210, 211, 212, 213, 214, 215, 216, 217, 218, 219, 220, 221, 222, 223, 224, 225, 226, 227, 228, 229, 230, 231, 232, 233, 234, 235, 236, 237, 238, 239, 240, 241, 242, 243, 244, 245, 246, 247, 248, 249, 250, 251, 252, 253, 254, 255, 256, 257, 258, 259, 260, 261, 262, 263, 264, 265, 266, 267, 268, 269, 270, 271, 272, 273, 274, 275, 276, 277, 278, 279, 280, 281, 282, 283, 284, 285, 286, 287, 288, 289, 290, 291, 292, 293, 294, 295, 296, 297, 298, 299, 300, 301, 302, 303, 304, 305, 306, 307, 308, 309, 310, 311, 312, 313, 314, 315, 316, 317, 318, 319, 320, 321, 322, 323, 324, 325, 326, 327, 328, 329, 330, 331, 332, 333, 334, 335, 336, 337, 338, 339, 340, 341, 342, 343, 344, 345, 346, 347, 348, 349, 350, 351, 352, 353, 354, 355, 356, 357, 358, 359, 360, 361, 362, 363, 364, 365, 366, 367, 368, 369, 370, 371, 372, 373, 374, 375, 376, 377, 378, 379, 380, 381, 382, 383, 384, 385, 386, 387, 388, 389, 390, 391, 392, 393, 394, 395, 396, 397, 398, 399, 400, 401, 402, 403, 404, 405, 406, 407, 408, 409, 410, 411, 412, 413, 414, 415, 
distro:
269, 201, 188, 188, 175, 175, 175, 175, 162, 162, 162, 162, 162, 162, 162, 162, 269, 201, 188, 188, 175, 175, 175, 175, 162, 162, 162, 162, 162, 162, 162, 162, 269, 201, 188, 188, 175, 175, 175, 175, 162, 162, 162, 162, 162, 162, 162, 162, 269, 201, 188, 188, 175, 175, 175, 175, 162, 162, 162, 162, 162, 162, 162, 162, 269, 201, 188, 188, 175, 175, 175, 175, 162, 162, 162, 162, 162, 162, 162, 162, 269, 201, 188, 188, 175, 175, 175, 175, 162, 162, 162, 162, 162, 162, 162, 162, 507, 507, 507, 507, 507, 507, 507, 507, 507, 507, 507, 507, 507, 507, 507, 507, 507, 507, 507, 507, 507, 507, 507, 507, 507, 507, 507, 507, 507, 507, 507, 507, 507, 507, 507, 507, 507, 507, 507, 507, 507, 507, 507, 507, 507, 507, 507, 507, 507, 507, 507, 507, 507, 507, 507, 507, 507, 507, 507, 507, 507, 507, 507, 507, 507, 507, 507, 507, 507, 507, 507, 507, 507, 507, 507, 507, 507, 507, 507, 507, 507, 507, 507, 507, 507, 507, 507, 507, 507, 507, 507, 507, 507, 507, 507, 507, 2773, 2773, 2773, 2773, 2773, 2773, 2773, 2773, 2773, 2773, 2773, 2773, 2773, 2773, 2773, 2773, 1331, 1331, 1331, 1331, 1331, 1331, 1331, 1331, 1331, 1331, 1331, 1331, 1331, 1331, 1331, 1331, 1331, 1331, 1331, 1331, 1331, 1331, 1331, 1331, 1331, 1331, 1331, 1331, 1331, 1331, 1331, 1331, 1339, 1339, 1339, 1339, 1339, 1339, 1339, 1339, 1339, 1339, 1339, 1339, 1339, 1339, 1339, 1339, 3243, 3173, 3221, 3193, 3221, 3263, 3235, 3179, 3095, 3193, 3109, 3221, 3249, 3207, 3179, 3165, 3165, 3081, 3207, 3179, 3165, 3193, 3165, 3179, 3207, 3165, 3151, 3207, 3277, 3123, 3249, 3123, 3369, 3369, 3369, 3369, 3369, 3369, 3369, 3369, 3369, 3369, 3369, 3369, 3369, 3369, 3369, 3369, 3347, 3347, 3347, 3347, 3347, 3347, 3347, 3347, 3347, 3347, 3347, 3347, 3347, 3347, 3347, 3347, 1521, 1549, 1507, 1535, 1535, 1619, 1479, 1521, 1535, 1507, 1577, 1521, 1577, 1591, 1535, 1563, 1541, 1583, 1639, 1583, 1513, 1569, 1583, 1653, 1513, 1555, 1625, 1513, 1513, 1597, 1527, 1513, 1331, 1331, 1331, 1331, 1331, 1331, 1345, 1331, 1331, 1331, 1331, 1345, 1345, 1331, 1331, 1331, 1339, 1339, 1339, 1339, 1339, 1339, 1339, 1339, 1339, 1339, 1339, 1339, 1339, 1339, 1339, 1339, 1331, 1331, 1331, 1331, 1331, 1331, 1331, 1331, 1331, 1331, 1331, 1331, 1331, 1331, 1331, 1331, 1331, 1331, 1331, 1331, 1331, 1331, 1331, 1331, 1331, 1331, 1331, 1331, 1331, 1331, 1331, 1331, 
gpgpu_n_tot_thrd_icount = 225359360
gpgpu_n_tot_w_icount = 7042480
gpgpu_n_icache_hits = 4035118
gpgpu_n_icache_misses = 19469
gpgpu_n_l1dcache_read_hits = 9740
gpgpu_n_l1dcache_read_misses = 1865938
gpgpu_n_l1dcache_write_accesses = 154440
gpgpu_n_l1dcache_wirte_misses = 154440
gpgpu_n_tcache_hits = 0
gpgpu_n_tcache_misses = 0
gpgpu_n_ccache_hits = 592688
gpgpu_n_ccache_misses = 448
gpgpu_n_stall_shd_mem = 6603724
gpgpu_n_mem_read_local = 0
gpgpu_n_mem_write_local = 0
gpgpu_n_mem_read_global = 670801
gpgpu_n_mem_write_global = 154440
gpgpu_n_mem_texture = 0
gpgpu_n_mem_const = 14
gpgpu_n_load_insn  = 33768768
gpgpu_n_store_insn = 2071680
gpgpu_n_shmem_insn = 6867968
gpgpu_n_tex_insn = 0
gpgpu_n_const_mem_insn = 0
gpgpu_n_param_mem_insn = 37863916
gpgpu_n_shmem_bkconflict = 0
gpgpu_n_cache_bkconflict = 0
gpgpu_n_intrawarp_mshr_merge = 0
gpgpu_n_cmem_portconflict = 3199
gpgpu_stall_shd_mem[c_mem][bk_conf] = 3199
gpgpu_stall_shd_mem[c_mem][mshr_rc] = 0
gpgpu_stall_shd_mem[c_mem][icnt_rc] = 0
gpgpu_stall_shd_mem[t_mem][mshr_rc] = 0
gpgpu_stall_shd_mem[t_mem][icnt_rc] = 0
gpgpu_stall_shd_mem[s_mem][bk_conf] = 95112
gpgpu_stall_shd_mem[gl_mem][bk_conf] = 0
gpgpu_stall_shd_mem[gl_mem][coal_stall] = 6505413
gpgpu_stall_shd_mem[g_mem_ld][mshr_rc] = 0
gpgpu_stall_shd_mem[g_mem_ld][icnt_rc] = 0
gpgpu_stall_shd_mem[g_mem_ld][wb_icnt_rc] = 0
gpgpu_stall_shd_mem[g_mem_ld][wb_rsrv_fail] = 0
gpgpu_stall_shd_mem[g_mem_st][mshr_rc] = 0
gpgpu_stall_shd_mem[g_mem_st][icnt_rc] = 0
gpgpu_stall_shd_mem[g_mem_st][wb_icnt_rc] = 0
gpgpu_stall_shd_mem[g_mem_st][wb_rsrv_fail] = 0
gpgpu_stall_shd_mem[l_mem_ld][mshr_rc] = 0
gpgpu_stall_shd_mem[l_mem_ld][icnt_rc] = 0
gpgpu_stall_shd_mem[l_mem_ld][wb_icnt_rc] = 0
gpgpu_stall_shd_mem[l_mem_ld][wb_rsrv_fail] = 0
gpgpu_stall_shd_mem[l_mem_st][mshr_rc] = 0
gpgpu_stall_shd_mem[l_mem_st][icnt_rc] = 0
gpgpu_stall_shd_mem[l_mem_ld][wb_icnt_rc] = 0
gpgpu_stall_shd_mem[l_mem_ld][wb_rsrv_fail] = 0
gpu_reg_bank_conflict_stalls = 0
Warp Occupancy Distribution:
Stall:8144988	W0_Idle:2119840	W0_Scoreboard:4736138	W1:234474	W2:210470	W3:181146	W4:138692	W5:82446	W6:50806	W7:38790	W8:43856	W9:57666	W10:76300	W11:92400	W12:104846	W13:108710	W14:108192	W15:93310	W16:76042	W17:54698	W18:68543	W19:20720	W20:10248	W21:4886	W22:1792	W23:658	W24:196	W25:56	W26:0	W27:0	W28:0	W29:0	W30:0	W31:0	W32:5182537
maxmrqlatency = 3386 
maxdqlatency = 0 
maxmflatency = 2650 
averagemflatency = 411 
max_icnt2mem_latency = 5313 
max_icnt2sh_latency = 328068 
mrq_lat_table:63246 	33972 	13938 	23143 	49794 	111400 	104021 	58342 	19812 	954 	20 	21 	0 	0 	0 	0 	0 	0 	0 	0 	0 	0 	0 	0 	0 	0 	0 	0 	0 	0 	0 	0 	
dq_lat_table:0 	0 	0 	0 	0 	0 	0 	0 	0 	0 	0 	0 	0 	0 	0 	0 	0 	0 	0 	0 	0 	0 	0 	0 	0 	0 	0 	0 	0 	0 	0 	0 	
mf_lat_table:0 	0 	0 	0 	0 	0 	19470 	295339 	321856 	107632 	80636 	322 	0 	0 	0 	0 	0 	0 	0 	0 	0 	0 	0 	0 	0 	0 	0 	0 	0 	0 	0 	0 	
icnt2mem_lat_table:262 	414798 	8100 	49653 	115242 	76130 	25091 	26726 	52259 	54545 	3623 	95 	9 	0 	0 	0 	0 	0 	0 	0 	0 	0 	0 	0 	
icnt2sh_lat_table:78 	291449 	238766 	137752 	2770 	0 	0 	0 	0 	0 	0 	0 	0 	0 	8390 	18148 	31120 	65791 	30991 	0 	0 	0 	0 	0 	
mf_lat_pw_table:0 	0 	0 	0 	0 	0 	4 	551 	482 	326 	302 	0 	0 	0 	0 	0 	0 	0 	0 	0 	0 	0 	0 	0 	0 	0 	0 	0 	0 	0 	0 	0 	
maximum concurrent accesses to same row:
dram[0]:        32        41        45        32        32        32        32        40        32        32        41        32        53        32        33        47 
dram[1]:        32        34        34        32        32        32        32        41        32        34        55        32        55        32        34        35 
dram[2]:        32        33        47        32        32        45        32        41        32        39        37        32        53        32        32        34 
dram[3]:        32        32        53        32        32        60        32        45        32        41        32        32        44        32        33        32 
dram[4]:        32        35        41        32        32        46        32        47        32        40        32        32        37        32        32        39 
maximum service time to same row:
dram[0]:     26622     26728     26412     21874     21711     21990     21960     21912     21733     21952     22064     21877     21896     22091     21904     25664 
dram[1]:     26694     26656     26547     21821     21777     21820     22035     21872     22043     22056     21965     21880     21863     22130     22024     25607 
dram[2]:     26585     26626     26522     21891     21859     21935     22075     22092     21768     21881     22040     21950     21876     22027     22083     25548 
dram[3]:     26642     26703     26441     22037     21927     21848     21850     21956     21823     22082     22133     21821     21989     21877     22151     25795 
dram[4]:     26761     26568     26266     21992     21863     21883     22141     22124     21820     22024     22028     21693     22029     22036     22034     25661 
average row accesses per activate:
dram[0]:  6.976716  7.451031  7.036070  7.235220  7.182771  7.242741  7.037975  7.497573  7.140715  7.089953  7.380096  6.915368  7.082353  6.905814  6.995249  7.158690 
dram[1]:  6.947689  7.566013  6.786826  7.466926  7.009101  7.509004  6.981693  7.263840  7.173458  7.387136  7.293349  7.130334  7.048122  6.736902  7.307787  7.103621 
dram[2]:  6.895054  7.289308  6.775656  7.281921  7.304142  7.447087  7.225119  7.598522  7.434783  7.204276  7.476248  7.305785  6.910345  6.819333  7.238095  7.006165 
dram[3]:  6.815476  7.227216  7.158690  7.420440  7.435990  7.429251  7.393682  7.822560  7.390156  7.398295  7.535539  7.182346  7.137604  7.117647  7.080336  7.079602 
dram[4]:  7.003672  7.411082  7.097867  7.162733  7.161816  7.629131  7.223141  7.777359  7.043478  7.330121  7.298578  7.006772  7.045614  6.852873  7.161604  7.159548 
average row locality = 478663/66492 = 7.198806
number of total memory accesses made:
dram[0]:         0         0         0         0         0         0         0         0         0         0         0         0         0         0         0         0 
dram[1]:         0         0         0         0         0         0         0         0         0         0         0         0         0         0         0         0 
dram[2]:         0         0         0         0         0         0         0         0         0         0         0         0         0         0         0         0 
dram[3]:         0         0         0         0         0         0         0         0         0         0         0         0         0         0         0         0 
dram[4]:         0         0         0         0         0         0         0         0         0         0         0         0         0         0         0         0 
total accesses: 0
min_bank_accesses = 0!
min_chip_accesses = 0!
number of total read accesses:
dram[0]:      3973      4001      3943      3966      4262      4286      4232      4273      4280      4222      4255      4304      4212      4159      4083      3962 
dram[1]:      3978      4015      3953      3976      4261      4299      4223      4270      4265      4217      4239      4294      4197      4147      4086      3970 
dram[2]:      3987      4020      3956      3975      4268      4294      4219      4262      4255      4209      4238      4298      4197      4160      4101      3975 
dram[3]:      3985      4012      3955      3954      4249      4281      4210      4262      4258      4217      4250      4302      4207      4165      4092      3980 
dram[4]:      3983      3992      3943      3972      4253      4275      4230      4272      4266      4223      4258      4310      4211      4176      4082      3975 
total reads: 332017
bank skew: 4310/3943 = 1.09
chip skew: 66421/66379 = 1.00
number of total write accesses:
dram[0]:      1720      1781      1714      1786      1908      1950      1884      1905      1911      1847      1900      1906      1808      1780      1807      1722 
[...]
dq_lat_table:0 	0 	0 	0 	0 	0 	0 	0 	0 	0 	0 	0 	0 	0 	0 	0 	0 	0 	0 	0 	0 	0 	0 	0 	0 	0 	0 	0 	0 	0 	0 	0 	
mf_lat_table:0 	0 	0 	0 	0 	0 	35833 	599761 	663003 	316481 	202506 	982 	0 	0 	0 	0 	0 	0 	0 	0 	0 	0 	0 	0 	0 	0 	0 	0 	0 	0 	0 	0 	
icnt2mem_lat_table:578 	832423 	17684 	103669 	243347 	179206 	72168 	73898 	149509 	140221 	8459 	192 	22 	0 	0 	0 	0 	0 	0 	0 	0 	0 	0 	0 	
icnt2sh_lat_table:173 	613281 	480842 	278506 	5811 	1 	0 	0 	0 	0 	0 	0 	0 	0 	8390 	18148 	31120 	65791 	30991 	106355 	179157 	0 	0 	0 	
mf_lat_pw_table:0 	0 	0 	0 	0 	0 	8 	1086 	991 	1006 	702 	0 	0 	0 	0 	0 	0 	0 	0 	0 	0 	0 	0 	0 	0 	0 	0 	0 	0 	0 	0 	0 	
maximum concurrent accesses to same row:
dram[0]:        45        41        45        80        82        60        55        69        80        45        45        75        55        35        36        47 
dram[1]:        32        34        40        80        75        70        55        75        70        35        55        75        55        40        34        35 
dram[2]:        40        35        47        80        81        70        60        75        80        39        45        55        53        55        32        40 
dram[3]:        60        34        53        80        80        80        50        75        75        41        45        80        50        50        33        40 
dram[4]:        53        35        41        80        81        75        55        79        80        55        45        80        50        40        32        47 
maximum service time to same row:
dram[0]:     26721     26728     26597     21874     21711     21990     21960     22464     22371     22495     22542     22585     22513     22623     22621     26606 
dram[1]:     26694     26665     26589     21821     21777     21820     22035     22444     22383     22441     22477     22333     22448     22553     22476     26563 
dram[2]:     26678     26685     26678     21891     21859     21935     23730     22477     22398     22468     22604     22434     22589     22653     22624     26572 
dram[3]:     26642     26703     26541     22037     21927     21848     23591     22393     22317     22541     22527     22329     22516     22557     22498     26608 
dram[4]:     26761     26609     26575     21992     21863     21883     22141     22461     22335     22441     22537     22519     22465     22547     22512     26503 
average row accesses per activate:
dram[0]:  6.276802  6.727009  6.533810  6.588123  6.656845  6.654839  6.511964  6.793872  6.764465  6.686165  6.779782  6.666973  6.540367  6.354533  6.313209  6.381356 
dram[1]:  6.316033  6.772683  6.359093  6.517614  6.624267  6.639029  6.506318  6.608931  6.919121  6.664193  6.830533  6.676824  6.428442  6.436986  6.426403  6.395951 
dram[2]:  6.265718  6.588374  6.204792  6.498362  6.728355  6.701202  6.591762  6.778449  6.872499  6.666358  6.923564  6.828302  6.482947  6.495624  6.456602  6.389281 
dram[3]:  6.364102  6.565976  6.458138  6.701550  6.776285  6.840114  6.680614  6.968556  6.998107  6.904419  7.116210  6.755473  6.587309  6.518450  6.356102  6.516037 
dram[4]:  6.406015  6.729258  6.587500  6.571496  6.720055  6.960501  6.738827  7.069531  6.759817  6.784535  6.934498  6.629900  6.577880  6.319767  6.336211  6.434123 
average row locality = 1135702/171656 = 6.616151
number of total memory accesses made:
dram[0]:         0         0         0         0         0         0         0         0         0         0         0         0         0         0         0         0 
dram[1]:         0         0         0         0         0         0         0         0         0         0         0         0         0         0         0         0 
dram[2]:         0         0         0         0         0         0         0         0         0         0         0         0         0         0         0         0 
dram[3]:         0         0         0         0         0         0         0         0         0         0         0         0         0         0         0         0 
dram[4]:         0         0         0         0         0         0         0         0         0         0         0         0         0         0         0         0 
total accesses: 0
min_bank_accesses = 0!
min_chip_accesses = 0!
number of total read accesses:
dram[0]:      8700      8816      8736      8817      9373      9272      9173      9266      9367      9179      9166      9321      9180      9090      8923      8694 
dram[1]:      8716      8839      8752      8841      9372      9297      9158      9276      9338      9163      9130      9290      9150      9073      8934      8705 
dram[2]:      8731      8851      8752      8837      9370      9286      9150      9247      9314      9155      9122      9292      9155      9096      8954      8725 
dram[3]:      8731      8836      8746      8804      9338      9257      9134      9243      9325      9167      9151      9316      9168      9109      8952      8733 
dram[4]:      8726      8798      8735      8832      9347      9249      9174      9259      9341      9176      9171      9329      9193      9117      8930      8709 
total reads: 725240
bank skew: 9373/8694 = 1.08
chip skew: 145086/145010 = 1.00
number of total write accesses:
dram[0]:      4883      5082      4985      5051      5312      5169      5251      5368      5481      5223      5119      5213      5078      4998      4985      4860 
dram[1]:      4914      5045      4990      5035      5314      5196      5260      5376      5462      5205      5098      5172      5044      5024      5037      4880 
dram[2]:      4922      5090      4973      5050      5318      5202      5253      5347      5455      5211      5099      5184      5101      5006      5031      4865 
dram[3]:      4920      5097      4984      5028      5292      5203      5236      5384      5462      5208      5117      5188      5054      5023      5006      4879 
dram[4]:      4906      5071      4967      5047      5296      5201      5301      5382      5463      5214      5121      5217      5081      5014      5016      4867 
total reads: 410462
bank skew: 5481/4860 = 1.13
chip skew: 82164/82052 = 1.00
average mf latency per bank:
dram[0]:        689       713       730       766       762       750       746       751       720       714       703       706       707       713       713       718
dram[1]:        692       713       733       760       756       744       750       755       719       719       694       710       707       715       710       720
dram[2]:        691       711       724       758       750       745       744       750       723       708       687       701       706       708       698       713
dram[3]:        681       702       728       769       750       740       748       748       713       702       690       710       711       711       706       713
dram[4]:        678       707       726       762       741       739       746       749       708       713       697       705       707       705       704       710
maximum mf latency per bank:
dram[0]:       2775      2368      2317      2337      2353      2169      2311      2224      2468      2435      2224      2081      2135      2169      2457      2472
dram[1]:       2317      2267      2221      2305      2326      2309      2354      2314      2440      2563      2069      2339      2157      2118      2311      2345
dram[2]:       2314      2360      2220      2292      2650      2769      2934      2340      2497      2161      2168      2150      2210      2189      2271      2540
dram[3]:       2503      2465      2339      2338      2318      2383      2925      2524      2771      2217      2511      2179      2348      2342      2655      2195
dram[4]:       2321      2783      2391      1994      2337      2420      2343      2276      2357      2398      2066      2342      2346      2171      2340      2728

Number of Memory Banks Accessed per Memory Operation per Warp (from 0):
0	0	0	0	0	0	0	0	0	0	0	0	0	0	0	0	0	0	0	0	0	0	0	0	0	0	0	0	0	0	0	0	0	0	0	0	0	0	0	0	0	0	0	0	0	0	0	0	0	0	0	0	0	0	0	0	0	0	0	0	0	0	0	0	0	0	0	0	0	0	0	0	0	0	0	0	0	0	0	0	
Average # of Memory Banks Accessed per Memory Operation per Warp=-nan

position of mrq chosen
0	0	0	0	0	0	0	0	0	0	0	0	0	0	0	0	

average position of mrq chosen = -nan
gpgpu_l2_write_miss = 0
gpgpu_l2_write_access = 0
gpgpu_l2_read_miss = 0
gpgpu_l2_read_access = 0
Cache L2_bank_000:
MSHR contents

DRAM[0]: 16 bks, busW=4 BL=8 CL=12, tRRD=2 tCCD=6, tRCD=12 tRAS=28 tRP=12 tRC=40
n_cmd=1430913 n_nop=980597 n_act=34541 n_pre=34525 n_req=227131 n_rd=290146 n_write=91104 bw_util=0.5329
n_activity=1219958 dram_eff=0.625
bk0: 17400a 1197081i bk1: 17632a 1188095i bk2: 17472a 1179244i bk3: 17634a 1176167i bk4: 18746a 1178660i bk5: 18544a 1166486i bk6: 18346a 1166972i bk7: 18532a 1162168i bk8: 18734a 1157416i bk9: 18358a 1148433i bk10: 18332a 1152645i bk11: 18642a 1138090i bk12: 18360a 1117581i bk13: 18180a 1087540i bk14: 17846a 1052579i bk15: 17388a 983646i 
dram_util_bins: 0 0 0 0 0 0 0 0 0 0
dram_eff_bins: 0 0 0 0 0 0 0 0 0 0
mrqq: max=16 avg=8.71764
Cache L2_bank_001:
MSHR contents

DRAM[1]: 16 bks, busW=4 BL=8 CL=12, tRRD=2 tCCD=6, tRCD=12 tRAS=28 tRP=12 tRC=40
n_cmd=1430913 n_nop=980624 n_act=34572 n_pre=34556 n_req=227086 n_rd=290068 n_write=91093 bw_util=0.5328
n_activity=1220712 dram_eff=0.6245
bk0: 17432a 1196538i bk1: 17678a 1189058i bk2: 17504a 1177900i bk3: 17682a 1174782i bk4: 18744a 1178652i bk5: 18594a 1167659i bk6: 18316a 1162530i bk7: 18552a 1162198i bk8: 18676a 1156241i bk9: 18326a 1149668i bk10: 18260a 1152769i bk11: 18580a 1137390i bk12: 18300a 1117945i bk13: 18146a 1089007i bk14: 17868a 1052720i bk15: 17410a 983080i 
dram_util_bins: 0 0 0 0 0 0 0 0 0 0
dram_eff_bins: 0 0 0 0 0 0 0 0 0 0
mrqq: max=16 avg=8.71987
Cache L2_bank_002:
MSHR contents

DRAM[2]: 16 bks, busW=4 BL=8 CL=12, tRRD=2 tCCD=6, tRCD=12 tRAS=28 tRP=12 tRC=40
n_cmd=1430913 n_nop=980788 n_act=34469 n_pre=34453 n_req=227144 n_rd=290074 n_write=91129 bw_util=0.5328
n_activity=1220982 dram_eff=0.6244
bk0: 17462a 1196947i bk1: 17702a 1189275i bk2: 17504a 1180373i bk3: 17674a 1177964i bk4: 18740a 1179295i bk5: 18572a 1167636i bk6: 18300a 1163773i bk7: 18494a 1163006i bk8: 18628a 1158377i bk9: 18310a 1151674i bk10: 18244a 1152520i bk11: 18584a 1139682i bk12: 18310a 1119266i bk13: 18192a 1087556i bk14: 17908a 1054742i bk15: 17450a 984818i 
dram_util_bins: 0 0 0 0 0 0 0 0 0 0
dram_eff_bins: 0 0 0 0 0 0 0 0 0 0
mrqq: max=16 avg=8.67161
Cache L2_bank_003:
MSHR contents

DRAM[3]: 16 bks, busW=4 BL=8 CL=12, tRRD=2 tCCD=6, tRCD=12 tRAS=28 tRP=12 tRC=40
n_cmd=1430913 n_nop=981887 n_act=33939 n_pre=33923 n_req=227091 n_rd=290020 n_write=91144 bw_util=0.5328
n_activity=1220587 dram_eff=0.6246
bk0: 17462a 1197631i bk1: 17672a 1190544i bk2: 17492a 1180648i bk3: 17608a 1180313i bk4: 18676a 1180215i bk5: 18514a 1168985i bk6: 18268a 1165379i bk7: 18486a 1163505i bk8: 18650a 1158765i bk9: 18334a 1151252i bk10: 18302a 1155462i bk11: 18632a 1138530i bk12: 18336a 1120181i bk13: 18218a 1088426i bk14: 17904a 1057602i bk15: 17466a 986921i 
dram_util_bins: 0 0 0 0 0 0 0 0 0 0
dram_eff_bins: 0 0 0 0 0 0 0 0 0 0
mrqq: max=16 avg=8.73895
Cache L2_bank_004:
MSHR contents

DRAM[4]: 16 bks, busW=4 BL=8 CL=12, tRRD=2 tCCD=6, tRCD=12 tRAS=28 tRP=12 tRC=40
n_cmd=1430913 n_nop=981375 n_act=34138 n_pre=34122 n_req=227250 n_rd=290172 n_write=91106 bw_util=0.5329
n_activity=1220378 dram_eff=0.6249
bk0: 17452a 1196396i bk1: 17596a 1190248i bk2: 17470a 1180728i bk3: 17664a 1177370i bk4: 18694a 1180303i bk5: 18498a 1168727i bk6: 18348a 1164941i bk7: 18518a 1163377i bk8: 18682a 1157536i bk9: 18352a 1149449i bk10: 18342a 1153472i bk11: 18658a 1138709i bk12: 18386a 1117394i bk13: 18234a 1087554i bk14: 17860a 1054943i bk15: 17418a 987077i 
dram_util_bins: 0 0 0 0 0 0 0 0 0 0
dram_eff_bins: 0 0 0 0 0 0 0 0 0 0
mrqq: max=16 avg=8.72382
Cache L2_bank_000:	Size = 131072 B (64 Set x 16-way x 128 byte line)
		Access = 364224, Miss = 145073 (0.398), PendingHit = 102530 (0.282)
Cache L2_bank_001:	Size = 131072 B (64 Set x 16-way x 128 byte line)
		Access = 364179, Miss = 145034 (0.398), PendingHit = 102546 (0.282)
Cache L2_bank_002:	Size = 131072 B (64 Set x 16-way x 128 byte line)
		Access = 364077, Miss = 145037 (0.398), PendingHit = 102574 (0.282)
Cache L2_bank_003:	Size = 131072 B (64 Set x 16-way x 128 byte line)
		Access = 364525, Miss = 145010 (0.398), PendingHit = 102620 (0.282)
Cache L2_bank_004:	Size = 131072 B (64 Set x 16-way x 128 byte line)
		Access = 364371, Miss = 145086 (0.398), PendingHit = 102556 (0.281)
L2 Cache Total Miss Rate = 0.398

icnt_total_pkts_mem_to_simt=7346276
icnt_total_pkts_simt_to_mem=2341200

LD_mem_lat_dist  0 0 0 0 0 0 0 0 0 0 0 0 0 0 0 0 0 0 0 0 0 0 0 0 0 0 0
ST_mem_lat_dist  0 0 0 0 0 0 0 0 0 0 0 0 0 0 0 0 0 0 0 0 0 0 0 0 0 0 0
Traffic 0 Stat
%=================================
% Average latency = 278.317
% Accepted packets = 0 at node 0 (avg = 0.0362139)
lat(15) = 278.317;
thru(15,:) = [ 0 0 0 0 0 0 0 0 0 0 0 0 0 0 0.166531 0.166549 0.166549 0.166619 0.166672 0 0 0 0 ];
% latency change    = 0.965268
% throughput change = 2.65169
Traffic 1 Stat
%=================================
% Average latency = 2.09967
% Accepted packets = 0 at node 14 (avg = 0.030042)
lat(16) = 2.09967;
thru(16,:) = [ 0.0339882 0.063273 0.0486306 0.0498977 0.0498977 0.0498977 0.0645401 0.0339882 0.0498977 0.0498977 0.0498977 0.0486306 0.0645401 0.0339882 0 0 0 0 0 0 0 0 0 ];
% latency change    = 131.553
% throughput change = 0.205443
----------------------------Interconnect-DETAILS---------------------------------=======Traffic[0]class0 ======
Traffic[0]class0Overall average latency = 190.238 (8 samples)
Traffic[0]class0Overall average accepted rate = 0.0329129 (8 samples)
Traffic[0]class0Overall min accepted rate = 0 (8 samples)
traffic_manager/latency_stat_0_freq = [ 0 612 985 267 255 238 256 100 136 144 140 103 179 190 319 486 1873 2056 824 977 867 807 871 860 803 821 768 737 742 762 677 657 636 583 627 623 630 599 570 637 550 597 528 516 574 536 540 478 537 494 501 463 464 459 474 466 412 419 435 392 449 389 376 357 411 412 338 339 341 327 310 311 326 294 307 287 284 298 258 251 265 248 256 263 251 225 227 237 203 202 196 192 227 188 172 179 188 154 184 189 189 172 178 153 159 157 147 131 144 131 122 104 142 136 141 122 113 145 115 103 114 110 100 75 100 97 99 91 90 82 74 71 89 84 90 89 71 70 79 81 94 67 78 74 53 71 76 68 81 66 70 47 73 61 64 65 73 66 57 61 60 46 50 54 56 56 43 62 63 59 73 61 60 52 63 48 44 47 46 53 50 47 56 43 63 50 35 54 48 67 43 46 51 56 63 58 61 57 52 58 48 58 54 57 62 49 66 57 67 62 62 41 60 55 55 63 54 60 71 53 40 41 48 37 63 53 50 48 52 29 40 43 50 58 61 56 47 49 40 54 28 43 42 42 46 52 56 46 46 47 52 38 50 44 36 37 58 50 41 36 52 44 47 37 56 37 35 48 38 51 37 56 39 42 54 34 48 43 55 37 47 45 42 31 49 42 44 37 53 45 46 44 50 48 44 46 51 61 48 61 34 52 49 44 52 37 45 50 63 49 64 39 49 50 37 39 56 43 43 32 46 55 36 47 41 37 44 38 31 49 36 44 35 52 53 40 39 37 38 41 38 41 38 32 56 47 36 36 48 32 42 28 37 42 49 43 41 34 46 32 36 45 39 33 34 40 33 34 39 28 41 27 26 31 41 47 31 33 42 34 54 35 45 41 49 43 50 40 42 43 54 45 49 40 49 57 34 27 34 38 41 47 41 34 31 47 41 37 38 30 38 43 34 36 45 34 33 34 31 26 34 32 27 30 38 31 33 26 33 36 32 32 30 36 40 39 31 19 30 26 41 31 48 34 33 41 33 34 25 26 33 32 44 42 34 48 27 30 31 42 33 27 34 40 30 39 38 36 31 38 33 54 37 31 15 29 28 41 56 38 33 32 34 37 30 31 37 41 31 37 40 31 21 33 23 34 31 32 37 30 33 29 40 35 38 38 36 40 30 28 25 28 35 27 34 37 34 44 38 35 37 49 35 19 24 44 31 34 39 37 40 37 22 28 37 29 42 26 34 41 26 42 30 39 41 37 24 27 38 34 28 35 27 28 33 38 32 25 30 23 24 35 30 34 25 36 42 29 43 29 29 31 22 27 30 25 50 33 25 29 34 33 40 27 23 36 23 34 29 37 27 34 27 41 24 28 22 36 33 36 44 26 37 33 27 31 30 40 42 27 24 22 36 21 42 31 28 22 32 32 32 24 34 30 29 29 24 26 36 25 20 21 30 29 30 20 30 31 33 24 30 22 27 36 27 24 23 19 31 35 27 18 30 38 24 29 23 30 32 26 24 26 29 30 26 28 27 23 24 27 36 26 38 35 38 26 29 40 26 19 21 28 28 18 25 22 33 23 23 28 15 19 29 25 29 25 15 27 28 24 24 33 22 21 17 24 27 31 32 23 19 18 23 29 21 23 23 22 25 25 26 33 20 24 21 23 33 25 20 19 27 28 21 20 19 22 21 16 21 15 13 18 28 25 18 27 27 30 24 26 24 24 25 29 21 32 16 14 24 18 26 15 26 14 18 17 39 34 21 29 23 25 22 27 32 29 32 16 21 23 23 24 20 21 14 17 17 24 22 19 22 27 22 18 28 21 23 26 23 25 19 22 35 31 19 16 34 20 10 24 30 19 17 11 18 14 26 26 29 28 19 18 37 26 31 24 21 27 25 27 27 14 21 23 18 25 22 16 21 23 31 17 28 24 25 18 15 24 25 23 21 27 20 15 15 22 18 28 23 19 19 20 23 25 17 15 18 23 24 19 19 13 20 9 21 19 20 32 16 22 16 17 17 16 17 21 22 19 27 12 23 13 15 22 23 21 12 14 24 15 20 16 17 18 19 23 17 13 11 23 13 25 18 15 17 21 28 23 17 16 12 18 19 20 27 17 22 17 28 23 15 27 19 19 19 17 16 23 26 26 20 21 14 20 11 12 16 27 17 27 23 20 19 17 21 18 23 16 21 34 16 23 13 17 15 24 22 22 21 31 25 23 22 19 17 17 25 20 21 23 17 25 24 18 26 24 31 14 24 18 20 13 15 28 16 23 18 20 21 5696 ];
Traffic[0]class1Average hops = 1 (1821376 samples)
traffic_manager/hop_stats_freq = [ 0 1821376 0 0 0 0 0 0 0 0 0 0 0 0 0 0 0 0 0 0 ];
=======Traffic[1]class0 ======
Traffic[1]class0Overall average latency = 6.09718 (8 samples)
Traffic[1]class0Overall average accepted rate = 0.0597864 (8 samples)
Traffic[1]class0Overall min accepted rate = 0 (8 samples)
traffic_manager/latency_stat_0_freq = [ 0 59572 2758 516 1113 17440 1421 199 332 151 198 60 14 22 12 8 7 1 1 2 3 2 3 1 0 1 0 1 0 0 0 0 0 0 0 0 0 0 0 0 0 0 0 0 0 0 0 0 0 0 0 0 0 0 0 0 0 0 0 0 0 0 0 0 0 0 0 0 0 0 0 0 0 0 0 0 0 0 0 0 0 0 0 0 0 0 0 0 0 0 0 0 0 0 0 0 0 0 0 0 0 0 0 0 0 0 0 0 0 0 0 0 0 0 0 0 0 0 0 0 0 0 0 0 0 0 0 0 0 0 0 0 0 0 0 0 0 0 0 0 0 0 0 0 0 0 0 0 0 0 0 0 0 0 0 0 0 0 0 0 0 0 0 0 0 0 0 0 0 0 0 0 0 0 0 0 0 0 0 0 0 0 0 0 0 0 0 0 0 0 0 0 0 0 0 0 0 0 0 0 0 0 0 0 0 0 0 0 0 0 0 0 0 0 0 0 0 0 0 0 0 0 0 0 0 0 0 0 0 0 0 0 0 0 0 0 0 0 0 0 0 0 0 0 0 0 0 0 0 0 0 0 0 0 0 0 0 0 0 0 0 0 0 0 0 0 0 0 0 0 0 0 0 0 0 0 0 0 0 0 0 0 0 0 0 0 0 0 0 0 0 0 0 0 0 0 0 0 0 0 0 0 0 0 0 0 0 0 0 0 0 0 0 0 0 0 0 0 0 0 0 0 0 0 0 0 0 0 0 0 0 0 0 0 0 0 0 0 0 0 0 0 0 0 0 0 0 0 0 0 0 0 0 0 0 0 0 0 0 0 0 0 0 0 0 0 0 0 0 0 0 0 0 0 0 0 0 0 0 0 0 0 0 0 0 0 0 0 0 0 0 0 0 0 0 0 0 0 0 0 0 0 0 0 0 0 0 0 0 0 0 0 0 0 0 0 0 0 0 0 0 0 0 0 0 0 0 0 0 0 0 0 0 0 0 0 0 0 0 0 0 0 0 0 0 0 0 0 0 0 0 0 0 0 0 0 0 0 0 0 0 0 0 0 0 0 0 0 0 0 0 0 0 0 0 0 0 0 0 0 0 0 0 0 0 0 0 0 0 0 0 0 0 0 0 0 0 0 0 0 0 0 0 0 0 0 0 0 0 0 0 0 0 0 0 0 0 0 0 0 0 0 0 0 0 0 0 0 0 0 0 0 0 0 0 0 0 0 0 0 0 0 0 0 0 0 0 0 0 0 0 0 0 0 0 0 0 0 0 0 0 0 0 0 0 0 0 0 0 0 0 0 0 0 0 0 0 0 0 0 0 0 0 0 0 0 0 0 0 0 0 0 0 0 0 0 0 0 0 0 0 0 0 0 0 0 0 0 0 0 0 0 0 0 0 0 0 0 0 0 0 0 0 0 0 0 0 0 0 0 0 0 0 0 0 0 0 0 0 0 0 0 0 0 0 0 0 0 0 0 0 0 0 0 0 0 0 0 0 0 0 0 0 0 0 0 0 0 0 0 0 0 0 0 0 0 0 0 0 0 0 0 0 0 0 0 0 0 0 0 0 0 0 0 0 0 0 0 0 0 0 0 0 0 0 0 0 0 0 0 0 0 0 0 0 0 0 0 0 0 0 0 0 0 0 0 0 0 0 0 0 0 0 0 0 0 0 0 0 0 0 0 0 0 0 0 0 0 0 0 0 0 0 0 0 0 0 0 0 0 0 0 0 0 0 0 0 0 0 0 0 0 0 0 0 0 0 0 0 0 0 0 0 0 0 0 0 0 0 0 0 0 0 0 0 0 0 0 0 0 0 0 0 0 0 0 0 0 0 0 0 0 0 0 0 0 0 0 0 0 0 0 0 0 0 0 0 0 0 0 0 0 0 0 0 0 0 0 0 0 0 0 0 0 0 0 0 0 0 0 0 0 0 0 0 0 0 0 0 0 0 0 0 0 0 0 0 0 0 0 0 0 0 0 0 0 0 0 0 0 0 0 0 0 0 0 0 0 0 0 0 0 0 0 0 0 0 0 0 0 0 0 0 0 0 0 0 0 0 0 0 0 0 0 0 0 0 0 0 0 0 0 0 0 0 0 0 0 0 0 0 0 0 0 0 0 0 0 0 0 0 0 0 0 0 0 0 0 0 0 0 0 0 0 0 0 0 0 0 0 0 0 0 0 0 0 0 0 0 0 0 0 0 0 0 0 0 0 0 0 0 0 0 0 0 0 0 0 0 0 0 0 0 0 0 0 0 0 0 0 ];
Traffic[1]class1Average hops = 1 (1821376 samples)
traffic_manager/hop_stats_freq = [ 0 1821376 0 0 0 0 0 0 0 0 0 0 0 0 0 0 0 0 0 0 ];
----------------------------END-of-Interconnect-DETAILS-------------------------

gpgpu_simulation_time = 0 days, 0 hrs, 20 min, 42 sec (1242 sec)
gpgpu_simulation_rate = 298480 (inst/sec)
gpgpu_simulation_rate = 1536 (cycle/sec)

