

        *** GPGPU-Sim Simulator Version 3.2.1  [build 15629] ***


               1=functional simulation only, 0=detailed performance simulator)
GPGPU-Sim: Configuration options:

-network_mode                           1 # Interconnection network mode
-inter_config_file   config_fermi_islip.icnt # Interconnection network config file
-gpgpu_ptx_use_cuobjdump                    1 # Use cuobjdump to extract ptx and sass from binaries
-gpgpu_experimental_lib_support                    0 # Try to extract code from cuda libraries [Broken because of unknown cudaGetExportTable]
-gpgpu_ptx_convert_to_ptxplus                    0 # Convert SASS (native ISA) to ptxplus and run ptxplus
-gpgpu_ptx_force_max_capability                   20 # Force maximum compute capability
-gpgpu_ptx_inst_debug_to_file                    0 # Dump executed instructions' debug information to file
-gpgpu_ptx_inst_debug_file       inst_debug.txt # Executed instructions' debug output file
-gpgpu_ptx_inst_debug_thread_uid                    1 # Thread UID for executed instructions' debug output
-gpgpu_simd_model                       1 # 1 = post-dominator
-gpgpu_shader_core_pipeline              1536:32 # shader core pipeline config, i.e., {<nthread>:<warpsize>}
-gpgpu_tex_cache:l1  4:128:24,L:R:m:N,F:128:4,128:2 # per-shader L1 texture cache  (READ-ONLY) config  {<nsets>:<bsize>:<assoc>,<rep>:<wr>:<alloc>:<wr_alloc>,<mshr>:<N>:<merge>,<mq>:<rf>}
-gpgpu_const_cache:l1 64:64:2,L:R:f:N,A:2:32,4 # per-shader L1 constant memory cache  (READ-ONLY) config  {<nsets>:<bsize>:<assoc>,<rep>:<wr>:<alloc>:<wr_alloc>,<mshr>:<N>:<merge>,<mq>} 
-gpgpu_cache:il1     4:128:4,L:R:f:N,A:2:32,4 # shader L1 instruction cache config  {<nsets>:<bsize>:<assoc>,<rep>:<wr>:<alloc>:<wr_alloc>,<mshr>:<N>:<merge>,<mq>} 
-gpgpu_cache:dl1     32:128:4,L:L:m:N,A:32:8,8 # per-shader L1 data cache config  {<nsets>:<bsize>:<assoc>,<rep>:<wr>:<alloc>:<wr_alloc>,<mshr>:<N>:<merge>,<mq> | none}
-gpgpu_perfect_mem                      0 # enable perfect memory mode (no cache miss)
-n_regfile_gating_group                    4 # group of lanes that should be read/written together)
-gpgpu_clock_gated_reg_file                    0 # enable clock gated reg file for power calculations
-gpgpu_clock_gated_lanes                    0 # enable clock gated lanes for power calculations
-gpgpu_shader_registers                32768 # Number of registers per shader core. Limits number of concurrent CTAs. (default 8192)
-gpgpu_shader_cta                       8 # Maximum number of concurrent CTAs in shader (default 8)
-gpgpu_n_clusters                      14 # number of processing clusters
-gpgpu_n_cores_per_cluster                    1 # number of simd cores per cluster
-gpgpu_n_cluster_ejection_buffer_size                    8 # number of packets in ejection buffer
-gpgpu_n_ldst_response_buffer_size                    2 # number of response packets in ld/st unit ejection buffer
-gpgpu_shmem_size                   16384 # Size of shared memory per shader core (default 16kB)
-gpgpu_shmem_num_banks                   32 # Number of banks in the shared memory in each shader core (default 16)
-gpgpu_shmem_limited_broadcast                    0 # Limit shared memory to do one broadcast per cycle (default on)
-gpgpu_shmem_warp_parts                    1 # Number of portions a warp is divided into for shared memory bank conflict check 
-gpgpu_warpdistro_shader                   -1 # Specify which shader core to collect the warp size distribution from
-gpgpu_warp_issue_shader                    0 # Specify which shader core to collect the warp issue distribution from
-gpgpu_local_mem_map                    1 # Mapping from local memory space address to simulated GPU physical address space (default = enabled)
-gpgpu_num_reg_banks                   16 # Number of register banks (default = 8)
-gpgpu_reg_bank_use_warp_id                    0 # Use warp ID in mapping registers to banks (default = off)
-gpgpu_operand_collector_num_units_sp                    6 # number of collector units (default = 4)
-gpgpu_operand_collector_num_units_sfu                    8 # number of collector units (default = 4)
-gpgpu_operand_collector_num_units_mem                    2 # number of collector units (default = 2)
-gpgpu_operand_collector_num_units_gen                    0 # number of collector units (default = 0)
-gpgpu_operand_collector_num_in_ports_sp                    2 # number of collector unit in ports (default = 1)
-gpgpu_operand_collector_num_in_ports_sfu                    1 # number of collector unit in ports (default = 1)
-gpgpu_operand_collector_num_in_ports_mem                    1 # number of collector unit in ports (default = 1)
-gpgpu_operand_collector_num_in_ports_gen                    0 # number of collector unit in ports (default = 0)
-gpgpu_operand_collector_num_out_ports_sp                    2 # number of collector unit in ports (default = 1)
-gpgpu_operand_collector_num_out_ports_sfu                    1 # number of collector unit in ports (default = 1)
-gpgpu_operand_collector_num_out_ports_mem                    1 # number of collector unit in ports (default = 1)
-gpgpu_operand_collector_num_out_ports_gen                    0 # number of collector unit in ports (default = 0)
-gpgpu_coalesce_arch                   13 # Coalescing arch (default = 13, anything else is off for now)
-gpgpu_num_sched_per_core                    2 # Number of warp schedulers per core
-gpgpu_max_insn_issue_per_warp                    1 # Max number of instructions that can be issued per warp in one cycle by scheduler
-gpgpu_simt_core_sim_order                    1 # Select the simulation order of cores in a cluster (0=Fix, 1=Round-Robin)
-gpgpu_pipeline_widths        2,1,1,2,1,1,2 # Pipeline widths ID_OC_SP,ID_OC_SFU,ID_OC_MEM,OC_EX_SP,OC_EX_SFU,OC_EX_MEM,EX_WB
-gpgpu_num_sp_units                     2 # Number of SP units (default=1)
-gpgpu_num_sfu_units                    1 # Number of SF units (default=1)
-gpgpu_num_mem_units                    1 # Number if ldst units (default=1) WARNING: not hooked up to anything
-gpgpu_scheduler                      lrr # Scheduler configuration: < lrr | gto | two_level_active > If two_level_active:<num_active_warps>:<inner_prioritization>:<outer_prioritization>For complete list of prioritization values see shader.h enum scheduler_prioritization_typeDefault: gto
-gpgpu_dram_scheduler                    1 # 0 = fifo, 1 = FR-FCFS (defaul)
-gpgpu_dram_partition_queues              8:8:8:8 # i2$:$2d:d2$:$2i
-l2_ideal                               0 # Use a ideal L2 cache that always hit
-gpgpu_cache:dl2     64:128:16,L:B:m:W,A:32:4,4 # unified banked L2 data cache config  {<nsets>:<bsize>:<assoc>,<rep>:<wr>:<alloc>:<wr_alloc>,<mshr>:<N>:<merge>,<mq>}
-gpgpu_cache:dl2_texture_only                    0 # L2 cache used for texture only
-gpgpu_n_mem                            5 # number of memory modules (e.g. memory controllers) in gpu
-gpgpu_n_mem_per_ctrlr                    2 # number of memory chips per memory controller
-gpgpu_memlatency_stat                   14 # track and display latency statistics 0x2 enables MC, 0x4 enables queue logs
-gpgpu_frfcfs_dram_sched_queue_size                   16 # 0 = unlimited (default); # entries per chip
-gpgpu_dram_return_queue_size                    0 # 0 = unlimited (default); # entries per chip
-gpgpu_dram_buswidth                    4 # default = 4 bytes (8 bytes per cycle at DDR)
-gpgpu_dram_burst_length                    8 # Burst length of each DRAM request (default = 4 data bus cycle)
-dram_data_command_freq_ratio                    4 # Frequency ratio between DRAM data bus and command bus (default = 2 times, i.e. DDR)
-gpgpu_dram_timing_opt nbk=16:CCD=2:RRD=6:RCD=12:RAS=28:RP=12:RC=40: CL=12:WL=4:CDLR=5:WR=12:nbkgrp=4:CCDL=3:RTPL=2 # DRAM timing parameters = {nbk:tCCD:tRRD:tRCD:tRAS:tRP:tRC:CL:WL:tCDLR:tWR:nbkgrp:tCCDL:tRTPL}
-rop_latency                          120 # ROP queue latency (default 85)
-dram_latency                         100 # DRAM latency (default 30)
-gpgpu_mem_addr_mapping dramid@8;00000000.00000000.00000000.00000000.0000RRRR.RRRRRRRR.BBBBCCCC.CCSSSSSS # mapping memory address to dram model {dramid@<start bit>;<memory address map>}
-gpgpu_mem_addr_test                    0 # run sweep test to check address mapping for aliased address
-gpgpu_mem_address_mask                    1 # 0 = old addressing mask, 1 = new addressing mask, 2 = new add. mask + flipped bank sel and chip sel bits
-gpuwattch_xml_file         gpuwattch.xml # GPUWattch XML file
-power_simulation_enabled                    1 # Turn on power simulator (1=On, 0=Off)
-power_per_cycle_dump                    0 # Dump detailed power output each cycle
-power_trace_enabled                    1 # produce a file for the power trace (1=On, 0=Off)
-power_trace_zlevel                     6 # Compression level of the power trace output log (0=no comp, 9=highest)
-steady_power_levels_enabled                    0 # produce a file for the steady power levels (1=On, 0=Off)
-steady_state_definition                  8:4 # allowed deviation:number of samples
-gpgpu_max_cycle                        0 # terminates gpu simulation early (0 = no limit)
-gpgpu_max_insn                         0 # terminates gpu simulation early (0 = no limit)
-gpgpu_max_cta                          0 # terminates gpu simulation early (0 = no limit)
-gpgpu_runtime_stat                   500 # display runtime statistics such as dram utilization {<freq>:<flag>}
-gpgpu_flush_l1_cache                    0 # Flush L1 cache at the end of each kernel call
-gpgpu_flush_l2_cache                    0 # Flush L2 cache at the end of each kernel call
-gpgpu_deadlock_detect                    1 # Stop the simulation at deadlock (1=on (default), 0=off)
-gpgpu_ptx_instruction_classification                    0 # if enabled will classify ptx instruction types per kernel (Max 255 kernels now)
-gpgpu_ptx_sim_mode                     0 # Select between Performance (default) or Functional simulation (1)
-gpgpu_clock_domains 600.0:1200.0:600.0:750.0 # Clock Domain Frequencies in MhZ {<Core Clock>:<ICNT Clock>:<L2 Clock>:<DRAM Clock>}
-gpgpu_max_concurrent_kernel                    8 # maximum kernels that can run concurrently on GPU
-gpgpu_cflog_interval                    0 # Interval between each snapshot in control flow logger
-visualizer_enabled                     0 # Turn on visualizer output (1=On, 0=Off)
-visualizer_outputfile                 NULL # Specifies the output log file for visualizer
-visualizer_zlevel                      6 # Compression level of the visualizer output log (0=no comp, 9=highest)
-trace_enabled                          0 # Turn on traces
-trace_components                    none # comma seperated list of traces to enable. Complete list found in trace_streams.tup. Default none
-trace_sampling_core                    0 # The core which is printed using CORE_DPRINTF. Default 0
-enable_ptx_file_line_stats                    1 # Turn on PTX source line statistic profiling. (1 = On)
-ptx_line_stats_filename gpgpu_inst_stats.txt # Output file for PTX source line statistics.
-save_embedded_ptx                      0 # saves ptx files embedded in binary as <n>.ptx
-keep                                   0 # keep intermediate files created by GPGPU-Sim when interfacing with external programs
-gpgpu_ptx_save_converted_ptxplus                    0 # Saved converted ptxplus to a file
-ptx_opcode_latency_int         4,13,4,5,145 # Opcode latencies for integers <ADD,MAX,MUL,MAD,DIV>Default 1,1,19,25,145
-ptx_opcode_latency_fp          4,13,4,5,39 # Opcode latencies for single precision floating points <ADD,MAX,MUL,MAD,DIV>Default 1,1,1,1,30
-ptx_opcode_latency_dp         8,19,8,8,330 # Opcode latencies for double precision floating points <ADD,MAX,MUL,MAD,DIV>Default 8,8,8,8,335
-ptx_opcode_initiation_int            1,2,2,1,8 # Opcode initiation intervals for integers <ADD,MAX,MUL,MAD,DIV>Default 1,1,4,4,32
-ptx_opcode_initiation_fp            1,2,1,1,4 # Opcode initiation intervals for single precision floating points <ADD,MAX,MUL,MAD,DIV>Default6eabb655e0ab11b4aa0801cb16359085  /tmp/tmp.625Lso0lE7/histo__SIZE1_1
 1,1,1,1,5
-ptx_opcode_initiation_dp         8,16,8,8,130 # Opcode initiation intervals for double precision floating points <ADD,MAX,MUL,MAD,DIV>Default 8,8,8,8,130
DRAM Timing Options:
nbk                                    16 # number of banks
CCD                                     2 # column to column delay
RRD                                     6 # minimal delay between activation of rows in different banks
RCD                                    12 # row to column delay
RAS                                    28 # time needed to activate row
RP                                     12 # time needed to precharge (deactivate) row
RC                                     40 # row cycle time
CDLR                                    5 # switching from write to read (changes tWTR)
WR                                     12 # last data-in to row precharge
CL                                     12 # CAS latency
WL                                      4 # Write latency
nbkgrp                                  4 # number of bank groups
CCDL                                    3 # column to column delay between accesses to different bank groups
RTPL                                    2 # read to precharge delay between accesses to different bank groups
addr_dec_mask[CHIP]  = 0000000000000000 	high:64 low:0
addr_dec_mask[BK]    = 000000000000f000 	high:16 low:12
addr_dec_mask[ROW]   = 000000000fff0000 	high:28 low:16
addr_dec_mask[COL]   = 0000000000000fff 	high:12 low:0
addr_dec_mask[BURST] = 000000000000003f 	high:6 low:0
*** Initializing Memory Statistics ***
self exe links to: /tmp/tmp.625Lso0lE7/histo__SIZE1_1
Running md5sum using "md5sum /tmp/tmp.625Lso0lE7/histo__SIZE1_1 "
Running cuobjdump using "$CUDA_INSTALL_PATH/bin/cuobjdump -ptx -elf -sass /tmp/tmp.625Lso0lE7/histo__SIZE1_1 > _cuobjdump_complete_output_ggAaGj"
Parsing file _cuobjdump_complete_output_ggAaGj
######### cuobjdump parser ########
## Adding new section PTX
Adding ptx filename: _cuobjdump_1.ptx
Adding arch: sm_13
Adding identifier: benchmarks/histo/histo.cu
## Adding new section ELF
Adding arch: sm_13
Adding identifier: benchmarks/histo/histo.cu
Done parsing!!!
Adding _cuobjdump_1.ptx with cubin handle 1
Running: cat _ptx_l9zCEn | sed 's/.version 1.5/.version 1.4/' | sed 's/, texmode_independent//' | sed 's/\(\.extern \.const\[1\] .b8 \w\+\)\[\]/\1\[1\]/' | sed 's/const\[.\]/const\[0\]/g' > _ptx2_yeZ5Cr

kernel '_Z20histo_prescan_kernelPjiS_' transfer to GPU hardware scheduler
kernel_name = _Z20histo_prescan_kernelPjiS_ 
kernel_launch_uid = 1 
gpu_sim_cycle = 15643
gpu_sim_insn = 5500864
gpu_ipc =     351.6502
gpu_tot_sim_cycle = 15643
gpu_tot_sim_insn = 5500864
gpu_tot_ipc =     351.6502
gpu_tot_issued_cta = 0
gpu_stall_dramfull = 14741
gpu_stall_icnt2sh    = 18747
gpu_total_sim_rate=550086
Cache L1D_000:	Size = 16384 B (32 Set x 4-way x 128 byte line)
		Access = 1524, Miss = 814 (0.534), PendingHit = 191 (0.125)
Cache L1D_001:	Size = 16384 B (32 Set x 4-way x 128 byte line)
		Access = 1402, Miss = 811 (0.578), PendingHit = 286 (0.204)
Cache L1D_002:	Size = 16384 B (32 Set x 4-way x 128 byte line)
		Access = 1528, Miss = 813 (0.532), PendingHit = 437 (0.286)
Cache L1D_003:	Size = 16384 B (32 Set x 4-way x 128 byte line)
		Access = 762, Miss = 575 (0.755), PendingHit = 15 (0.0197)
Cache L1D_004:	Size = 16384 B (32 Set x 4-way x 128 byte line)
		Access = 762, Miss = 494 (0.648), PendingHit = 58 (0.0761)
Cache L1D_005:	Size = 16384 B (32 Set x 4-way x 128 byte line)
		Access = 1398, Miss = 771 (0.552), PendingHit = 266 (0.19)
Cache L1D_006:	Size = 16384 B (32 Set x 4-way x 128 byte line)
		Access = 1278, Miss = 598 (0.468), PendingHit = 210 (0.164)
Cache L1D_007:	Size = 16384 B (32 Set x 4-way x 128 byte line)
		Access = 762, Miss = 438 (0.575), PendingHit = 92 (0.121)
Cache L1D_008:	Size = 16384 B (32 Set x 4-way x 128 byte line)
		Access = 762, Miss = 488 (0.64), PendingHit = 77 (0.101)
Cache L1D_009:	Size = 16384 B (32 Set x 4-way x 128 byte line)
		Access = 1270, Miss = 513 (0.404), PendingHit = 298 (0.235)
Cache L1D_010:	Size = 16384 B (32 Set x 4-way x 128 byte line)
		Access = 766, Miss = 470 (0.614), PendingHit = 113 (0.148)
Cache L1D_011:	Size = 16384 B (32 Set x 4-way x 128 byte line)
		Access = 1526, Miss = 851 (0.558), PendingHit = 218 (0.143)
Cache L1D_012:	Size = 16384 B (32 Set x 4-way x 128 byte line)
		Access = 762, Miss = 444 (0.583), PendingHit = 27 (0.0354)
Cache L1D_013:	Size = 16384 B (32 Set x 4-way x 128 byte line)
		Access = 1526, Miss = 823 (0.539), PendingHit = 395 (0.259)
total_dl1_misses=8903
total_dl1_accesses=16028
total_dl1_miss_rate= 0.555465
Shader 0 dynamic_warp_id issue ditsribution:
dynamic_warp_id:
0, 1, 2, 3, 4, 5, 6, 7, 8, 9, 10, 11, 12, 13, 14, 15, 16, 17, 18, 19, 20, 21, 22, 23, 24, 25, 26, 27, 28, 29, 30, 31, 32, 33, 34, 35, 36, 37, 38, 39, 40, 41, 42, 43, 44, 45, 46, 47, 48, 49, 50, 51, 52, 53, 54, 55, 56, 57, 58, 59, 60, 61, 62, 63, 64, 65, 66, 67, 68, 69, 70, 71, 72, 73, 74, 75, 76, 77, 78, 79, 80, 81, 82, 83, 84, 85, 86, 87, 88, 89, 90, 91, 92, 93, 94, 95, 
distro:
269, 201, 188, 188, 175, 175, 175, 175, 162, 162, 162, 162, 162, 162, 162, 162, 269, 201, 188, 188, 175, 175, 175, 175, 162, 162, 162, 162, 162, 162, 162, 162, 269, 201, 188, 188, 175, 175, 175, 175, 162, 162, 162, 162, 162, 162, 162, 162, 269, 201, 188, 188, 175, 175, 175, 175, 162, 162, 162, 162, 162, 162, 162, 162, 269, 201, 188, 188, 175, 175, 175, 175, 162, 162, 162, 162, 162, 162, 162, 162, 269, 201, 188, 188, 175, 175, 175, 175, 162, 162, 162, 162, 162, 162, 162, 162, 
gpgpu_n_tot_thrd_icount = 5820416
gpgpu_n_tot_w_icount = 181888
gpgpu_n_icache_hits = 104640
gpgpu_n_icache_misses = 3392
gpgpu_n_l1dcache_read_hits = 4442
gpgpu_n_l1dcache_read_misses = 11586
gpgpu_n_l1dcache_write_accesses = 0
gpgpu_n_l1dcache_wirte_misses = 0
gpgpu_n_tcache_hits = 0
gpgpu_n_tcache_misses = 0
gpgpu_n_ccache_hits = 2688
gpgpu_n_ccache_misses = 448
gpgpu_n_stall_shd_mem = 62814
gpgpu_n_mem_read_local = 0
gpgpu_n_mem_write_local = 0
gpgpu_n_mem_read_global = 9031
gpgpu_n_mem_write_global = 0
gpgpu_n_mem_texture = 0
gpgpu_n_mem_const = 14
gpgpu_n_load_insn  = 518144
gpgpu_n_store_insn = 0
gpgpu_n_shmem_insn = 782208
gpgpu_n_tex_insn = 0
gpgpu_n_const_mem_insn = 0
gpgpu_n_param_mem_insn = 196736
gpgpu_n_shmem_bkconflict = 0
gpgpu_n_cache_bkconflict = 0
gpgpu_n_intrawarp_mshr_merge = 0
gpgpu_n_cmem_portconflict = 2975
gpgpu_stall_shd_mem[c_mem][bk_conf] = 2975
gpgpu_stall_shd_mem[c_mem][mshr_rc] = 0
gpgpu_stall_shd_mem[c_mem][icnt_rc] = 0
gpgpu_stall_shd_mem[t_mem][mshr_rc] = 0
gpgpu_stall_shd_mem[t_mem][icnt_rc] = 0
gpgpu_stall_shd_mem[s_mem][bk_conf] = 0
gpgpu_stall_shd_mem[gl_mem][bk_conf] = 0
gpgpu_stall_shd_mem[gl_mem][coal_stall] = 59839
gpgpu_stall_shd_mem[g_mem_ld][mshr_rc] = 0
gpgpu_stall_shd_mem[g_mem_ld][icnt_rc] = 0
gpgpu_stall_shd_mem[g_mem_ld][wb_icnt_rc] = 0
gpgpu_stall_shd_mem[g_mem_ld][wb_rsrv_fail] = 0
gpgpu_stall_shd_mem[g_mem_st][mshr_rc] = 0
gpgpu_stall_shd_mem[g_mem_st][icnt_rc] = 0
gpgpu_stall_shd_mem[g_mem_st][wb_icnt_rc] = 0
gpgpu_stall_shd_mem[g_mem_st][wb_rsrv_fail] = 0
gpgpu_stall_shd_mem[l_mem_ld][mshr_rc] = 0
gpgpu_stall_shd_mem[l_mem_ld][icnt_rc] = 0
gpgpu_stall_shd_mem[l_mem_ld][wb_icnt_rc] = 0
gpgpu_stall_shd_mem[l_mem_ld][wb_rsrv_fail] = 0
gpgpu_stall_shd_mem[l_mem_st][mshr_rc] = 0
gpgpu_stall_shd_mem[l_mem_st][icnt_rc] = 0
gpgpu_stall_shd_mem[l_mem_ld][wb_icnt_rc] = 0
gpgpu_stall_shd_mem[l_mem_ld][wb_rsrv_fail] = 0
gpu_reg_bank_conflict_stalls = 0
Warp Occupancy Distribution:
Stall:98455	W0_Idle:40731	W0_Scoreboard:33210	W1:1472	W2:512	W3:0	W4:512	W5:0	W6:0	W7:1088	W8:512	W9:0	W10:0	W11:0	W12:0	W13:0	W14:0	W15:0	W16:512	W17:0	W18:0	W19:0	W20:0	W21:0	W22:0	W23:0	W24:0	W25:0	W26:0	W27:0	W28:0	W29:0	W30:0	W31:0	W32:177280
maxmrqlatency = 161 
maxdqlatency = 0 
maxmflatency = 680 
averagemflatency = 299 
max_icnt2mem_latency = 339 
max_icnt2sh_latency = 31 
mrq_lat_table:1873 	115 	144 	337 	765 	590 	293 	4 	0 	0 	0 	0 	0 	0 	0 	0 	0 	0 	0 	0 	0 	0 	0 	0 	0 	0 	0 	0 	0 	0 	0 	0 	
dq_lat_table:0 	0 	0 	0 	0 	0 	0 	0 	0 	0 	0 	0 	0 	0 	0 	0 	0 	0 	0 	0 	0 	0 	0 	0 	0 	0 	0 	0 	0 	0 	0 	0 	
mf_lat_table:0 	0 	0 	0 	0 	0 	540 	2631 	5354 	520 	0 	0 	0 	0 	0 	0 	0 	0 	0 	0 	0 	0 	0 	0 	0 	0 	0 	0 	0 	0 	0 	0 	
icnt2mem_lat_table:219 	4083 	293 	347 	533 	707 	1331 	1602 	84 	0 	0 	0 	0 	0 	0 	0 	0 	0 	0 	0 	0 	0 	0 	0 	
icnt2sh_lat_table:115 	2680 	2423 	3588 	239 	0 	0 	0 	0 	0 	0 	0 	0 	0 	0 	0 	0 	0 	0 	0 	0 	0 	0 	0 	
mf_lat_pw_table:0 	0 	0 	0 	0 	0 	5 	9 	12 	0 	0 	0 	0 	0 	0 	0 	0 	0 	0 	0 	0 	0 	0 	0 	0 	0 	0 	0 	0 	0 	0 	0 	
maximum concurrent accesses to same row:
dram[0]:         7         8         4         6         4         3         4         4         8         4         4         7         3         6         4         4 
dram[1]:         7         8         4         7         4         4         2         4         8         4         4        10         4         6         4         4 
dram[2]:         9         9         4         7         4         5         4         4         8         4         4        10         3         5         4         4 
dram[3]:         5         6         4         6         4         4         4         4         8         4         4        10         4         4         4         4 
dram[4]:         7         6         4         6         4         3         3         4         8         5         4         9         3         4         4         4 
maximum service time to same row:
dram[0]:      3292      8132      1528      1536      8026      6673      1773      9703      6097      1520      9687      5649      1701      6777      5891      1643 
dram[1]:      3902      8108      1530      1531      8027      6655      1764      9699      6053      1523      9688      5517      1692      6771      5813      1544 
dram[2]:      5724      8109      1520      1530      8068      6767      1804      9698      6157      1524      9715      5525      1737      6386      6004      1532 
dram[3]:      5673      7501      1518      4741      8090      6872      1821      9700      6144      1528      9714      5400      1744      6370      5806      1532 
dram[4]:      4924      7412      1522      1532      8115      6827      1748      9704      6251      1560      9688      5447      1753      6456      5618      1548 
average row accesses per activate:
dram[0]:  3.375000  2.370370  1.675000  2.888889  2.347826  1.882353  1.772727  2.235294  1.837838  1.705882  2.666667  2.166667  1.511111  4.800000  2.000000  1.641026 
dram[1]:  3.857143  2.233333  1.861111  2.700000  2.217391  1.717949  1.842105  2.928571  2.031250  1.742857  3.000000  2.275862  1.857143  4.800000  2.093750  1.805556 
dram[2]:  4.333333  2.518518  1.939394  3.000000  2.500000  1.888889  2.125000  2.529412  2.064516  1.794118  2.500000  2.518518  1.589744  5.200000  2.000000  1.942857 
dram[3]:  2.888889  2.392857  2.166667  2.400000  2.684211  2.030303  2.000000  2.250000  1.857143  1.935484  2.500000  2.125000  1.937500  3.500000  1.969697  1.743590 
dram[4]:  3.250000  2.133333  1.675000  3.142857  2.500000  1.729730  1.761905  2.210526  1.942857  1.838710  3.300000  2.407408  1.805556  3.250000  2.125000  1.911765 
average row locality = 4121/1971 = 2.090817
number of total memory accesses made:
dram[0]:         0         0         0         0         0         0         0         0         0         0         0         0         0         0         0         0 
dram[1]:         0         0         0         0         0         0         0         0         0         0         0         0         0         0         0         0 
dram[2]:         0         0         0         0         0         0         0         0         0         0         0         0         0         0         0         0 
dram[3]:         0         0         0         0         0         0         0         0         0         0         0         0         0         0         0         0 
dram[4]:         0         0         0         0         0         0         0         0         0         0         0         0         0         0         0         0 
total accesses: 0
min_bank_accesses = 0!
min_chip_accesses = 0!
number of total read accesses:
dram[0]:        27        64        67        26        54        64        39        38        68        58        32        65        68        24        66        64 
dram[1]:        27        67        67        27        51        67        35        41        65        61        30        66        65        24        67        65 
dram[2]:        26        68        64        27        50        68        34        43        64        61        30        68        62        26        64        68 
dram[3]:        26        67        65        24        51        67        34        45        65        60        30        68        62        28        65        68 
dram[4]:        26        64        67        22        55        64        37        42        68        57        33        65        65        26        68        65 
total reads: 4121
bank skew: 68/22 = 3.09
chip skew: 825/823 = 1.00
number of total write accesses:
dram[0]:         0         0         0         0         0         0         0         0         0         0         0         0         0         0         0         0 
dram[1]:         0         0         0         0         0         0         0         0         0         0         0         0         0         0         0         0 
dram[2]:         0         0         0         0         0         0         0         0         0         0         0         0         0         0         0         0 
dram[3]:         0         0         0         0         0         0         0         0         0         0         0         0         0         0         0         0 
dram[4]:         0         0         0         0         0         0         0         0         0         0         0         0         0         0         0         0 
total reads: 0
min_bank_accesses = 0!
min_chip_accesses = 0!
average mf latency per bank:
dram[0]:        739       461       757       780       437       768       810       338       799       793       292       676       913       501       544       822
dram[1]:        583       467       759       783       460       781       808       332       784       816       293       670       934       535       536       839
dram[2]:        589       464       704       722       451       752       727       322       739       749       285       631       842       501       515       751
dram[3]:        584       491       728      1432       445       775       754       339       751       767       290       681       820       461       519       760
dram[4]:        626       479       731       787       464       751       759       344       760       761       289       684       856       485       522       783
maximum mf latency per bank:
dram[0]:        555       532       602       576       425       611       584       332       624       557       293       567       680       500       618       667
dram[1]:        500       526       604       576       443       592       636       311       568       564       284       559       646       524       581       641
dram[2]:        553       473       546       539       430       546       537       322       569       533       279       596       617       459       488       574
dram[3]:        460       465       550       527       445       550       546       306       530       539       279       548       578       433       506       592
dram[4]:        505       502       585       545       485       525       585       311       611       529       282       569       576       427       522       566

Number of Memory Banks Accessed per Memory Operation per Warp (from 0):
0	0	0	0	0	0	0	0	0	0	0	0	0	0	0	0	0	0	0	0	0	0	0	0	0	0	0	0	0	0	0	0	0	0	0	0	0	0	0	0	0	0	0	0	0	0	0	0	0	0	0	0	0	0	0	0	0	0	0	0	0	0	0	0	0	0	0	0	0	0	0	0	0	0	0	0	0	0	0	0	
Average # of Memory Banks Accessed per Memory Operation per Warp=-nan

position of mrq chosen
0	0	0	0	0	0	0	0	0	0	0	0	0	0	0	0	

average position of mrq chosen = -nan
gpgpu_l2_write_miss = 0
gpgpu_l2_write_access = 0
gpgpu_l2_read_miss = 0
gpgpu_l2_read_access = 0
Cache L2_bank_000:
MSHR contents

DRAM[0]: 16 bks, busW=4 BL=8 CL=12, tRRD=2 tCCD=6, tRCD=12 tRAS=28 tRP=12 tRC=40
n_cmd=19553 n_nop=17089 n_act=416 n_pre=400 n_req=824 n_rd=1648 n_write=0 bw_util=0.1686
n_activity=5709 dram_eff=0.5773
bk0: 54a 18813i bk1: 128a 18727i bk2: 134a 18125i bk3: 52a 18668i bk4: 108a 18773i bk5: 128a 18134i bk6: 78a 18538i bk7: 76a 18937i bk8: 136a 18206i bk9: 116a 18170i bk10: 64a 18928i bk11: 130a 18370i bk12: 136a 17849i bk13: 48a 18621i bk14: 132a 17763i bk15: 128a 15840i 
dram_util_bins: 0 0 0 0 0 0 0 0 0 0
dram_eff_bins: 0 0 0 0 0 0 0 0 0 0
mrqq: max=16 avg=1.01355
Cache L2_bank_001:
MSHR contents

DRAM[1]: 16 bks, busW=4 BL=8 CL=12, tRRD=2 tCCD=6, tRCD=12 tRAS=28 tRP=12 tRC=40
n_cmd=19553 n_nop=17133 n_act=393 n_pre=377 n_req=825 n_rd=1650 n_write=0 bw_util=0.1688
n_activity=5714 dram_eff=0.5775
bk0: 54a 18887i bk1: 134a 18691i bk2: 134a 18272i bk3: 54a 18815i bk4: 102a 18690i bk5: 134a 18243i bk6: 70a 18718i bk7: 82a 18853i bk8: 130a 18310i bk9: 122a 18371i bk10: 60a 18924i bk11: 132a 18399i bk12: 130a 18233i bk13: 48a 18673i bk14: 134a 17678i bk15: 130a 16030i 
dram_util_bins: 0 0 0 0 0 0 0 0 0 0
dram_eff_bins: 0 0 0 0 0 0 0 0 0 0
mrqq: max=16 avg=0.96599
Cache L2_bank_002:
MSHR contents

DRAM[2]: 16 bks, busW=4 BL=8 CL=12, tRRD=2 tCCD=6, tRCD=12 tRAS=28 tRP=12 tRC=40
n_cmd=19553 n_nop=17163 n_act=380 n_pre=364 n_req=823 n_rd=1646 n_write=0 bw_util=0.1684
n_activity=5673 dram_eff=0.5803
bk0: 52a 18939i bk1: 136a 18807i bk2: 128a 18233i bk3: 54a 18842i bk4: 100a 18773i bk5: 136a 18171i bk6: 68a 18700i bk7: 86a 18899i bk8: 128a 18262i bk9: 122a 18285i bk10: 60a 18923i bk11: 136a 18431i bk12: 124a 17991i bk13: 52a 18790i bk14: 128a 17843i bk15: 136a 16010i 
dram_util_bins: 0 0 0 0 0 0 0 0 0 0
dram_eff_bins: 0 0 0 0 0 0 0 0 0 0
mrqq: max=16 avg=0.876796
Cache L2_bank_003:
MSHR contents

DRAM[3]: 16 bks, busW=4 BL=8 CL=12, tRRD=2 tCCD=6, tRCD=12 tRAS=28 tRP=12 tRC=40
n_cmd=19553 n_nop=17143 n_act=388 n_pre=372 n_req=825 n_rd=1650 n_write=0 bw_util=0.1688
n_activity=5705 dram_eff=0.5784
bk0: 52a 18971i bk1: 134a 18757i bk2: 130a 18420i bk3: 48a 18800i bk4: 102a 18751i bk5: 134a 18302i bk6: 68a 18625i bk7: 90a 18999i bk8: 130a 18365i bk9: 120a 18283i bk10: 60a 18881i bk11: 136a 18404i bk12: 124a 18141i bk13: 56a 18700i bk14: 130a 17899i bk15: 136a 15996i 
dram_util_bins: 0 0 0 0 0 0 0 0 0 0
dram_eff_bins: 0 0 0 0 0 0 0 0 0 0
mrqq: max=16 avg=0.838388
Cache L2_bank_004:
MSHR contents

DRAM[4]: 16 bks, busW=4 BL=8 CL=12, tRRD=2 tCCD=6, tRCD=12 tRAS=28 tRP=12 tRC=40
n_cmd=19553 n_nop=17127 n_act=397 n_pre=381 n_req=824 n_rd=1648 n_write=0 bw_util=0.1686
n_activity=5847 dram_eff=0.5637
bk0: 52a 18895i bk1: 128a 18789i bk2: 134a 18263i bk3: 44a 18776i bk4: 110a 18745i bk5: 128a 18214i bk6: 74a 18712i bk7: 84a 18950i bk8: 136a 18357i bk9: 114a 18380i bk10: 66a 18912i bk11: 130a 18388i bk12: 130a 18110i bk13: 52a 18698i bk14: 136a 17849i bk15: 130a 15824i 
dram_util_bins: 0 0 0 0 0 0 0 0 0 0
dram_eff_bins: 0 0 0 0 0 0 0 0 0 0
mrqq: max=16 avg=0.926354
Cache L2_bank_000:	Size = 131072 B (64 Set x 16-way x 128 byte line)
		Access = 1829, Miss = 824 (0.451), PendingHit = 6 (0.00328)
Cache L2_bank_001:	Size = 131072 B (64 Set x 16-way x 128 byte line)
		Access = 1816, Miss = 825 (0.454), PendingHit = 8 (0.00441)
Cache L2_bank_002:	Size = 131072 B (64 Set x 16-way x 128 byte line)
		Access = 1821, Miss = 823 (0.452), PendingHit = 6 (0.00329)
Cache L2_bank_003:	Size = 131072 B (64 Set x 16-way x 128 byte line)
		Access = 1930, Miss = 825 (0.427), PendingHit = 9 (0.00466)
Cache L2_bank_004:	Size = 131072 B (64 Set x 16-way x 128 byte line)
		Access = 1803, Miss = 824 (0.457), PendingHit = 0 (0)
L2 Cache Total Miss Rate = 0.448

icnt_total_pkts_mem_to_simt=45583
icnt_total_pkts_simt_to_mem=9199

LD_mem_lat_dist  0 0 0 0 0 0 0 0 0 0 0 0 0 0 0 0 0 0 0 0 0 0 0 0 0 0 0
ST_mem_lat_dist  0 0 0 0 0 0 0 0 0 0 0 0 0 0 0 0 0 0 0 0 0 0 0 0 0 0 0
Traffic 0 Stat
%=================================
% Average latency = 56.2188
% Accepted packets = 0 at node 0 (avg = 0.0129622)
lat(1) = 56.2188;
thru(1,:) = [ 0 0 0 0 0 0 0 0 0 0 0 0 0 0 0.0584625 0.058047 0.0582068 0.0657823 0.0576315 0 0 0 0 ];
% latency change    = 1
% throughput change = 1
Traffic 1 Stat
%=================================
% Average latency = 12.4071
% Accepted packets = 0 at node 14 (avg = 0.0633489)
lat(2) = 12.4071;
thru(2,:) = [ 0.132715 0.132236 0.132556 0.0941346 0.0811891 0.125843 0.0980662 0.0722391 0.0802301 0.0844814 0.0773534 0.138629 0.073198 0.134154 0 0 0 0 0 0 0 0 0 ];
% latency change    = 3.53118
% throughput change = 0.795384
----------------------------Interconnect-DETAILS---------------------------------=======Traffic[0]class0 ======
Traffic[0]class0Overall average latency = 56.2188 (1 samples)
Traffic[0]class0Overall average accepted rate = 0.0129622 (1 samples)
Traffic[0]class0Overall min accepted rate = 0 (1 samples)
traffic_manager/latency_stat_0_freq = [ 0 5031 611 86 35 35 30 32 7 31 10 32 16 26 7 24 8 40 6 32 7 23 5 41 12 19 3 20 6 19 12 18 4 18 3 9 6 20 6 16 11 22 7 9 7 17 5 23 7 16 5 21 6 15 10 15 3 16 6 18 6 15 7 21 4 13 7 14 2 14 8 17 7 16 9 18 6 11 7 22 8 17 2 11 5 20 5 15 9 21 4 20 1 19 3 8 7 13 5 17 5 9 4 19 7 12 5 18 5 16 6 20 6 16 7 22 7 20 2 12 3 17 3 10 5 17 4 15 3 20 3 29 6 8 4 13 6 16 8 27 9 21 7 14 3 19 1 14 3 24 4 9 4 11 4 16 5 12 6 18 8 20 5 21 4 26 6 12 3 23 5 16 5 23 2 20 5 19 1 15 1 13 4 20 4 10 5 22 2 18 5 18 3 16 2 20 0 18 1 20 2 15 2 15 5 11 3 19 1 11 3 12 2 15 0 14 4 12 4 18 3 15 0 11 6 19 3 21 1 17 3 13 2 14 4 14 0 15 1 7 2 12 3 21 2 14 2 21 2 16 0 16 1 19 3 16 1 17 0 12 2 15 3 15 3 15 2 18 3 18 1 15 1 15 1 22 2 17 4 7 2 14 0 9 1 11 0 10 2 8 2 13 3 11 1 10 3 13 1 13 3 9 1 10 0 14 0 10 0 9 0 8 1 8 0 8 0 4 1 9 1 9 1 8 0 5 1 4 0 12 0 8 0 5 0 1 1 3 0 4 1 6 1 4 2 4 0 3 0 9 0 3 1 3 0 3 0 2 1 6 0 1 0 6 1 1 0 0 0 1 0 2 0 6 0 2 0 0 1 0 0 0 0 2 0 4 1 1 0 0 0 0 0 0 0 1 0 1 0 2 0 1 0 0 0 0 0 0 0 2 0 0 0 0 0 0 0 2 0 0 0 0 0 1 0 0 0 0 0 1 0 0 0 1 0 0 0 0 0 0 0 1 0 2 0 0 0 0 0 0 0 0 0 2 0 1 0 0 0 0 0 0 0 0 0 0 0 1 0 0 0 0 0 1 0 0 0 0 0 0 0 0 0 0 0 0 0 0 0 0 0 0 0 0 0 0 0 0 0 0 0 0 0 0 0 0 0 0 0 0 0 0 0 0 0 0 0 0 0 0 0 0 0 0 0 1 0 0 0 0 0 0 0 0 0 0 0 0 0 0 0 0 0 0 0 0 0 0 0 0 0 0 0 0 0 0 0 0 0 0 0 0 0 0 0 0 0 0 0 0 0 0 0 0 0 0 0 0 0 0 0 0 0 0 0 0 0 0 0 0 0 0 0 0 0 0 0 0 0 0 0 0 0 0 0 0 0 0 0 0 0 0 0 0 0 0 0 0 0 0 0 0 0 0 0 0 0 0 0 0 0 0 0 0 0 0 0 0 0 0 0 0 0 0 0 0 0 0 0 0 0 0 0 0 0 0 0 0 0 0 0 0 0 0 0 0 0 0 0 0 0 0 0 0 0 0 0 0 0 0 0 0 0 0 0 0 0 0 0 0 0 0 0 0 0 0 0 0 0 0 0 0 0 0 0 0 0 0 0 0 0 0 0 0 0 0 0 0 0 0 0 0 0 0 0 0 0 0 0 0 0 0 0 0 0 0 0 0 0 0 0 0 0 0 0 0 0 0 0 0 0 0 0 0 0 0 0 0 0 0 0 0 0 0 0 0 0 0 0 0 0 0 0 0 0 0 0 0 0 0 0 0 0 0 0 0 0 0 0 0 0 0 0 0 0 0 0 0 0 0 0 0 0 0 0 0 0 0 0 0 0 0 0 0 0 0 0 0 0 0 0 0 0 0 0 0 0 0 0 0 0 0 0 0 0 0 0 0 0 0 0 0 0 0 0 0 0 0 0 0 0 0 0 0 0 0 0 0 0 0 0 0 0 0 0 0 0 0 0 0 0 0 0 0 0 0 0 0 0 0 0 0 0 0 0 0 0 0 0 0 0 0 0 0 0 0 0 0 0 0 0 0 0 0 0 0 0 0 0 0 0 0 0 0 0 0 0 0 0 0 0 0 0 0 0 0 0 0 0 0 0 0 0 0 0 0 0 0 0 0 0 0 0 0 0 0 0 0 0 0 0 0 0 0 0 0 0 0 0 0 0 0 0 0 0 0 0 0 0 0 0 0 0 0 0 0 0 0 0 0 0 0 0 0 0 0 0 0 0 0 0 0 0 0 0 0 0 0 0 0 ];
Traffic[0]class1Average hops = 1 (9199 samples)
traffic_manager/hop_stats_freq = [ 0 9199 0 0 0 0 0 0 0 0 0 0 0 0 0 0 0 0 0 0 ];
=======Traffic[1]class0 ======
Traffic[1]class0Overall average latency = 12.4071 (1 samples)
Traffic[1]class0Overall average accepted rate = 0.0633489 (1 samples)
Traffic[1]class0Overall min accepted rate = 0 (1 samples)
traffic_manager/latency_stat_0_freq = [ 0 0 115 2 4 2215 521 216 602 611 306 213 194 177 241 203 1675 102 106 151 72 706 47 25 59 26 285 22 19 27 22 116 5 6 12 6 43 2 1 5 7 15 0 0 0 0 6 1 0 2 0 6 0 0 0 0 0 0 0 0 0 2 0 0 0 0 0 0 0 0 0 0 0 0 0 0 0 0 0 0 0 0 0 0 0 0 0 0 0 0 0 0 0 0 0 0 0 0 0 0 0 0 0 0 0 0 0 0 0 0 0 0 0 0 0 0 0 0 0 0 0 0 0 0 0 0 0 0 0 0 0 0 0 0 0 0 0 0 0 0 0 0 0 0 0 0 0 0 0 0 0 0 0 0 0 0 0 0 0 0 0 0 0 0 0 0 0 0 0 0 0 0 0 0 0 0 0 0 0 0 0 0 0 0 0 0 0 0 0 0 0 0 0 0 0 0 0 0 0 0 0 0 0 0 0 0 0 0 0 0 0 0 0 0 0 0 0 0 0 0 0 0 0 0 0 0 0 0 0 0 0 0 0 0 0 0 0 0 0 0 0 0 0 0 0 0 0 0 0 0 0 0 0 0 0 0 0 0 0 0 0 0 0 0 0 0 0 0 0 0 0 0 0 0 0 0 0 0 0 0 0 0 0 0 0 0 0 0 0 0 0 0 0 0 0 0 0 0 0 0 0 0 0 0 0 0 0 0 0 0 0 0 0 0 0 0 0 0 0 0 0 0 0 0 0 0 0 0 0 0 0 0 0 0 0 0 0 0 0 0 0 0 0 0 0 0 0 0 0 0 0 0 0 0 0 0 0 0 0 0 0 0 0 0 0 0 0 0 0 0 0 0 0 0 0 0 0 0 0 0 0 0 0 0 0 0 0 0 0 0 0 0 0 0 0 0 0 0 0 0 0 0 0 0 0 0 0 0 0 0 0 0 0 0 0 0 0 0 0 0 0 0 0 0 0 0 0 0 0 0 0 0 0 0 0 0 0 0 0 0 0 0 0 0 0 0 0 0 0 0 0 0 0 0 0 0 0 0 0 0 0 0 0 0 0 0 0 0 0 0 0 0 0 0 0 0 0 0 0 0 0 0 0 0 0 0 0 0 0 0 0 0 0 0 0 0 0 0 0 0 0 0 0 0 0 0 0 0 0 0 0 0 0 0 0 0 0 0 0 0 0 0 0 0 0 0 0 0 0 0 0 0 0 0 0 0 0 0 0 0 0 0 0 0 0 0 0 0 0 0 0 0 0 0 0 0 0 0 0 0 0 0 0 0 0 0 0 0 0 0 0 0 0 0 0 0 0 0 0 0 0 0 0 0 0 0 0 0 0 0 0 0 0 0 0 0 0 0 0 0 0 0 0 0 0 0 0 0 0 0 0 0 0 0 0 0 0 0 0 0 0 0 0 0 0 0 0 0 0 0 0 0 0 0 0 0 0 0 0 0 0 0 0 0 0 0 0 0 0 0 0 0 0 0 0 0 0 0 0 0 0 0 0 0 0 0 0 0 0 0 0 0 0 0 0 0 0 0 0 0 0 0 0 0 0 0 0 0 0 0 0 0 0 0 0 0 0 0 0 0 0 0 0 0 0 0 0 0 0 0 0 0 0 0 0 0 0 0 0 0 0 0 0 0 0 0 0 0 0 0 0 0 0 0 0 0 0 0 0 0 0 0 0 0 0 0 0 0 0 0 0 0 0 0 0 0 0 0 0 0 0 0 0 0 0 0 0 0 0 0 0 0 0 0 0 0 0 0 0 0 0 0 0 0 0 0 0 0 0 0 0 0 0 0 0 0 0 0 0 0 0 0 0 0 0 0 0 0 0 0 0 0 0 0 0 0 0 0 0 0 0 0 0 0 0 0 0 0 0 0 0 0 0 0 0 0 0 0 0 0 0 0 0 0 0 0 0 0 0 0 0 0 0 0 0 0 0 0 0 0 0 0 0 0 0 0 0 0 0 0 0 0 0 0 0 0 0 0 0 0 0 0 0 0 0 0 0 0 0 0 0 0 0 0 0 0 0 0 0 0 0 0 0 0 0 0 0 0 0 0 0 0 0 0 0 0 0 0 0 0 0 0 0 0 0 0 0 0 0 0 0 0 0 0 0 0 0 0 0 0 0 0 0 0 0 0 0 0 0 0 0 0 0 0 0 0 0 0 0 0 0 0 0 0 0 0 0 0 0 0 0 0 0 0 0 0 0 0 0 0 0 0 0 0 0 0 0 0 0 0 0 0 0 0 0 0 0 0 0 0 ];
Traffic[1]class1Average hops = 1 (9199 samples)
traffic_manager/hop_stats_freq = [ 0 9199 0 0 0 0 0 0 0 0 0 0 0 0 0 0 0 0 0 0 ];
----------------------------END-of-Interconnect-DETAILS-------------------------

gpgpu_simulation_time = 0 days, 0 hrs, 0 min, 10 sec (10 sec)
gpgpu_simulation_rate = 550086 (inst/sec)
gpgpu_simulation_rate = 1564 (cycle/sec)

kernel '_Z26histo_intermediates_kernelP5uint2jjjP6uchar4' transfer to GPU hardware scheduler
kernel_name = _Z26histo_intermediates_kernelP5uint2jjjP6uchar4 
kernel_launch_uid = 2 
gpu_sim_cycle = 191002
gpu_sim_insn = 15893670
gpu_ipc =      83.2121
gpu_tot_sim_cycle = 206645
gpu_tot_sim_insn = 21394534
gpu_tot_ipc =     103.5328
gpu_tot_issued_cta = 0
gpu_stall_dramfull = 521571
gpu_stall_icnt2sh    = 20958
gpu_total_sim_rate=222859
Cache L1D_000:	Size = 16384 B (32 Set x 4-way x 128 byte line)
		Access = 3690, Miss = 2782 (0.754), PendingHit = 193 (0.0523)
Cache L1D_001:	Size = 16384 B (32 Set x 4-way x 128 byte line)
		Access = 5734, Miss = 4915 (0.857), PendingHit = 290 (0.0506)
Cache L1D_002:	Size = 16384 B (32 Set x 4-way x 128 byte line)
		Access = 3694, Miss = 2927 (0.792), PendingHit = 440 (0.119)
Cache L1D_003:	Size = 16384 B (32 Set x 4-way x 128 byte line)
		Access = 2928, Miss = 2512 (0.858), PendingHit = 17 (0.00581)
Cache L1D_004:	Size = 16384 B (32 Set x 4-way x 128 byte line)
		Access = 4372, Miss = 3585 (0.82), PendingHit = 93 (0.0213)
Cache L1D_005:	Size = 16384 B (32 Set x 4-way x 128 byte line)
		Access = 5730, Miss = 4789 (0.836), PendingHit = 276 (0.0482)
Cache L1D_006:	Size = 16384 B (32 Set x 4-way x 128 byte line)
		Access = 4166, Miss = 3047 (0.731), PendingHit = 416 (0.0999)
Cache L1D_007:	Size = 16384 B (32 Set x 4-way x 128 byte line)
		Access = 5094, Miss = 4455 (0.875), PendingHit = 92 (0.0181)
Cache L1D_008:	Size = 16384 B (32 Set x 4-way x 128 byte line)
		Access = 2928, Miss = 2442 (0.834), PendingHit = 79 (0.027)
Cache L1D_009:	Size = 16384 B (32 Set x 4-way x 128 byte line)
		Access = 4880, Miss = 3608 (0.739), PendingHit = 318 (0.0652)
Cache L1D_010:	Size = 16384 B (32 Set x 4-way x 128 byte line)
		Access = 5098, Miss = 4574 (0.897), PendingHit = 114 (0.0224)
Cache L1D_011:	Size = 16384 B (32 Set x 4-way x 128 byte line)
		Access = 5858, Miss = 4688 (0.8), PendingHit = 230 (0.0393)
Cache L1D_012:	Size = 16384 B (32 Set x 4-way x 128 byte line)
		Access = 2928, Miss = 2508 (0.857), PendingHit = 27 (0.00922)
Cache L1D_013:	Size = 16384 B (32 Set x 4-way x 128 byte line)
		Access = 5858, Miss = 4967 (0.848), PendingHit = 401 (0.0685)
total_dl1_misses=51799
total_dl1_accesses=62958
total_dl1_miss_rate= 0.822755
Shader 0 dynamic_warp_id issue ditsribution:
dynamic_warp_id:
0, 1, 2, 3, 4, 5, 6, 7, 8, 9, 10, 11, 12, 13, 14, 15, 16, 17, 18, 19, 20, 21, 22, 23, 24, 25, 26, 27, 28, 29, 30, 31, 32, 33, 34, 35, 36, 37, 38, 39, 40, 41, 42, 43, 44, 45, 46, 47, 48, 49, 50, 51, 52, 53, 54, 55, 56, 57, 58, 59, 60, 61, 62, 63, 64, 65, 66, 67, 68, 69, 70, 71, 72, 73, 74, 75, 76, 77, 78, 79, 80, 81, 82, 83, 84, 85, 86, 87, 88, 89, 90, 91, 92, 93, 94, 95, 96, 97, 98, 99, 100, 101, 102, 103, 104, 105, 106, 107, 108, 109, 110, 111, 112, 113, 114, 115, 116, 117, 118, 119, 120, 121, 122, 123, 124, 125, 126, 127, 128, 129, 130, 131, 132, 133, 134, 135, 136, 137, 138, 139, 140, 141, 142, 143, 
distro:
269, 201, 188, 188, 175, 175, 175, 175, 162, 162, 162, 162, 162, 162, 162, 162, 269, 201, 188, 188, 175, 175, 175, 175, 162, 162, 162, 162, 162, 162, 162, 162, 269, 201, 188, 188, 175, 175, 175, 175, 162, 162, 162, 162, 162, 162, 162, 162, 269, 201, 188, 188, 175, 175, 175, 175, 162, 162, 162, 162, 162, 162, 162, 162, 269, 201, 188, 188, 175, 175, 175, 175, 162, 162, 162, 162, 162, 162, 162, 162, 269, 201, 188, 188, 175, 175, 175, 175, 162, 162, 162, 162, 162, 162, 162, 162, 507, 507, 507, 507, 507, 507, 507, 507, 507, 507, 507, 507, 507, 507, 507, 507, 507, 507, 507, 507, 507, 507, 507, 507, 507, 507, 507, 507, 507, 507, 507, 507, 507, 507, 507, 507, 507, 507, 507, 507, 507, 507, 507, 507, 507, 507, 507, 507, 
gpgpu_n_tot_thrd_icount = 22693376
gpgpu_n_tot_w_icount = 709168
gpgpu_n_icache_hits = 368800
gpgpu_n_icache_misses = 16466
gpgpu_n_l1dcache_read_hits = 8173
gpgpu_n_l1dcache_read_misses = 54785
gpgpu_n_l1dcache_write_accesses = 154440
gpgpu_n_l1dcache_wirte_misses = 154440
gpgpu_n_tcache_hits = 0
gpgpu_n_tcache_misses = 0
gpgpu_n_ccache_hits = 55728
gpgpu_n_ccache_misses = 448
gpgpu_n_stall_shd_mem = 2119035
gpgpu_n_mem_read_local = 0
gpgpu_n_mem_write_local = 0
gpgpu_n_mem_read_global = 51927
gpgpu_n_mem_write_global = 154440
gpgpu_n_mem_texture = 0
gpgpu_n_mem_const = 14
gpgpu_n_load_insn  = 1553984
gpgpu_n_store_insn = 2071680
gpgpu_n_shmem_insn = 782208
gpgpu_n_tex_insn = 0
gpgpu_n_const_mem_insn = 0
gpgpu_n_param_mem_insn = 3498476
gpgpu_n_shmem_bkconflict = 0
gpgpu_n_cache_bkconflict = 0
gpgpu_n_intrawarp_mshr_merge = 0
gpgpu_n_cmem_portconflict = 2975
gpgpu_stall_shd_mem[c_mem][bk_conf] = 2975
gpgpu_stall_shd_mem[c_mem][mshr_rc] = 0
gpgpu_stall_shd_mem[c_mem][icnt_rc] = 0
gpgpu_stall_shd_mem[t_mem][mshr_rc] = 0
gpgpu_stall_shd_mem[t_mem][icnt_rc] = 0
gpgpu_stall_shd_mem[s_mem][bk_conf] = 0
gpgpu_stall_shd_mem[gl_mem][bk_conf] = 0
gpgpu_stall_shd_mem[gl_mem][coal_stall] = 2116060
gpgpu_stall_shd_mem[g_mem_ld][mshr_rc] = 0
gpgpu_stall_shd_mem[g_mem_ld][icnt_rc] = 0
gpgpu_stall_shd_mem[g_mem_ld][wb_icnt_rc] = 0
gpgpu_stall_shd_mem[g_mem_ld][wb_rsrv_fail] = 0
gpgpu_stall_shd_mem[g_mem_st][mshr_rc] = 0
gpgpu_stall_shd_mem[g_mem_st][icnt_rc] = 0
gpgpu_stall_shd_mem[g_mem_st][wb_icnt_rc] = 0
gpgpu_stall_shd_mem[g_mem_st][wb_rsrv_fail] = 0
gpgpu_stall_shd_mem[l_mem_ld][mshr_rc] = 0
gpgpu_stall_shd_mem[l_mem_ld][icnt_rc] = 0
gpgpu_stall_shd_mem[l_mem_ld][wb_icnt_rc] = 0
gpgpu_stall_shd_mem[l_mem_ld][wb_rsrv_fail] = 0
gpgpu_stall_shd_mem[l_mem_st][mshr_rc] = 0
gpgpu_stall_shd_mem[l_mem_st][icnt_rc] = 0
gpgpu_stall_shd_mem[l_mem_ld][wb_icnt_rc] = 0
gpgpu_stall_shd_mem[l_mem_ld][wb_rsrv_fail] = 0
gpu_reg_bank_conflict_stalls = 0
Warp Occupancy Distribution:
Stall:3280865	W0_Idle:803680	W0_Scoreboard:92893	W1:1472	W2:512	W3:0	W4:512	W5:0	W6:0	W7:1088	W8:512	W9:0	W10:0	W11:0	W12:0	W13:0	W14:0	W15:0	W16:512	W17:0	W18:32955	W19:0	W20:0	W21:0	W22:0	W23:0	W24:0	W25:0	W26:0	W27:0	W28:0	W29:0	W30:0	W31:0	W32:671605
maxmrqlatency = 604 
maxdqlatency = 0 
maxmflatency = 1600 
averagemflatency = 609 
max_icnt2mem_latency = 4224 
max_icnt2sh_latency = 206644 
mrq_lat_table:52164 	3807 	4697 	8221 	32141 	54124 	57716 	26461 	2115 	13 	0 	0 	0 	0 	0 	0 	0 	0 	0 	0 	0 	0 	0 	0 	0 	0 	0 	0 	0 	0 	0 	0 	
dq_lat_table:0 	0 	0 	0 	0 	0 	0 	0 	0 	0 	0 	0 	0 	0 	0 	0 	0 	0 	0 	0 	0 	0 	0 	0 	0 	0 	0 	0 	0 	0 	0 	0 	
mf_lat_table:0 	0 	0 	0 	0 	0 	617 	9033 	54242 	137288 	5201 	0 	0 	0 	0 	0 	0 	0 	0 	0 	0 	0 	0 	0 	0 	0 	0 	0 	0 	0 	0 	0 	
icnt2mem_lat_table:258 	7474 	1929 	3823 	19474 	35319 	28187 	39117 	60125 	11610 	117 	22 	1 	0 	0 	0 	0 	0 	0 	0 	0 	0 	0 	0 	
icnt2sh_lat_table:115 	37543 	9455 	4544 	284 	0 	0 	0 	0 	0 	0 	0 	0 	0 	15263 	28314 	49889 	60974 	0 	0 	0 	0 	0 	0 	
mf_lat_pw_table:0 	0 	0 	0 	0 	0 	6 	10 	63 	329 	0 	0 	0 	0 	0 	0 	0 	0 	0 	0 	0 	0 	0 	0 	0 	0 	0 	0 	0 	0 	0 	0 	
maximum concurrent accesses to same row:
dram[0]:        33        21        21        28        49        40        26        47        23        29        27        21        53        18        27        43 
dram[1]:        26        33        32        27        48        43        29        49        24        27        32        21        55        17        25        43 
dram[2]:        21        19        27        28        28        48        23        48        24        25        25        26        62        20        24        26 
dram[3]:        21        22        28        37        49        46        23        49        26        21        26        23        58        23        21        21 
dram[4]:        23        20        27        40        28        45        22        40        20        21        23        21        52        25        25        46 
maximum service time to same row:
dram[0]:      6261      8132      2609      3224      8026      6673     14572      9703      6097      4583      9687      5649      6251      6777      5891      3359 
dram[1]:      3902      8108      2385      3229      8027      6655     11866      9699      6053      5188      9688      5517      6242      6771      5813      3391 
dram[2]:      5724      8109      2190      3194      8068      6895     14924      9698      6157      5390      9715      5525      6945      6386      6004      3726 
dram[3]:      5673      7501      2352      4741      8090      6872     15058      9700      6144      4413      9714      5400      6351      6370      5806      3086 
dram[4]:      4924      7412      2067      4502      8115      6827     13298      9704      6251      3647      9688      5447      7220      6456      5618      4307 
average row accesses per activate:
dram[0]:  3.862772  4.015007  4.075177  4.211062  4.297784  4.009021  3.997272  3.875164  4.210027  4.162983  4.146472  4.171690  4.191947  4.328691  4.332867  4.097222 
dram[1]:  3.733681  4.169034  4.086280  4.134286  4.178763  4.024580  3.778489  4.055934  4.281207  3.977572  4.210382  4.151194  4.312586  4.224490  4.310585  4.140056 
dram[2]:  3.794393  4.013624  3.849534  4.195369  4.140000  4.025974  3.944075  4.006803  4.294282  4.103683  4.153639  4.361878  4.251710  4.339360  4.382022  4.068871 
dram[3]:  3.788639  3.975610  4.067701  4.205840  4.316667  4.196185  3.960969  3.971583  4.150943  4.060976  4.078844  4.247978  4.117177  4.289438  4.125333  3.995951 
dram[4]:  3.753298  4.132394  3.983310  4.345809  4.114058  4.145553  4.066390  4.084605  4.099867  4.017450  3.981959  4.252349  4.005161  4.234417  4.260274  4.135211 
average row locality = 241459/58777 = 4.108052
number of total memory accesses made:
dram[0]:         0         0         0         0         0         0         0         0         0         0         0         0         0         0         0         0 
dram[1]:         0         0         0         0         0         0         0         0         0         0         0         0         0         0         0         0 
dram[2]:         0         0         0         0         0         0         0         0         0         0         0         0         0         0         0         0 
dram[3]:         0         0         0         0         0         0         0         0         0         0         0         0         0         0         0         0 
dram[4]:         0         0         0         0         0         0         0         0         0         0         0         0         0         0         0         0 
total accesses: 0
min_bank_accesses = 0!
min_chip_accesses = 0!
number of total read accesses:
dram[0]:      1183      1244      1218      1201      1262      1272      1179      1198      1264      1243      1278      1322      1288      1255      1311      1242 
dram[1]:      1196      1248      1231      1211      1267      1277      1184      1205      1266      1234      1259      1299      1281      1252      1306      1243 
dram[2]:      1198      1260      1232      1214      1263      1263      1178      1191      1248      1226      1256      1305      1281      1268      1322      1253 
dram[3]:      1204      1250      1224      1195      1256      1251      1166      1187      1248      1228      1274      1315      1279      1280      1323      1252 
dram[4]:      1195      1237      1211      1195      1261      1249      1176      1189      1257      1232      1274      1325      1286      1273      1323      1236 
total reads: 99728
bank skew: 1325/1166 = 1.14
chip skew: 19960/19919 = 1.00
number of total write accesses:
dram[0]:      1660      1699      1655      1692      1841      1839      1751      1751      1843      1771      1836      1861      1835      1853      1787      1708 
dram[1]:      1664      1687      1658      1683      1842      1834      1767      1768      1855      1781      1823      1831      1837      1853      1789      1713 
dram[2]:      1644      1686      1659      1685      1842      1837      1784      1754      1831      1782      1826      1853      1827      1852      1798      1701 
dram[3]:      1664      1684      1660      1686      1852      1829      1777      1748      1832      1769      1830      1837      1813      1847      1771      1709 
dram[4]:      1650      1697      1653      1708      1841      1827      1764      1756      1822      1761      1816      1843      1818      1852      1787      1700 
total reads: 141731
bank skew: 1861/1644 = 1.13
chip skew: 28385/28295 = 1.00
average mf latency per bank:
dram[0]:        522       517       512       517       526       527       543       537       508       526       505       512       531       513       509       518
dram[1]:        526       530       520       526       531       534       548       532       520       531       510       532       532       514       514       531
dram[2]:        537       532       528       530       525       528       537       528       511       527       514       519       525       511       515       530
dram[3]:        512       513       516       521       506       515       528       522       505       510       503       511       521       494       505       517
dram[4]:        509       518       519       520       527       522       535       527       507       524       512       512       529       510       509       523
maximum mf latency per bank:
dram[0]:       1278      1262      1347      1320      1284      1578      1406      1385      1222      1447      1214      1245      1318      1336      1284      1385
dram[1]:       1295      1353      1392      1269      1407      1496      1460      1436      1410      1371      1227      1377      1417      1396      1329      1373
dram[2]:       1287      1306      1396      1305      1349      1600      1406      1272      1368      1414      1230      1326      1357      1346      1321      1416
dram[3]:       1213      1349      1314      1342      1317      1442      1361      1238      1286      1305      1255      1384      1310      1307      1222      1313
dram[4]:       1241      1264      1427      1256      1336      1370      1342      1454      1255      1412      1323      1324      1417      1504      1431      1400

Number of Memory Banks Accessed per Memory Operation per Warp (from 0):
0	0	0	0	0	0	0	0	0	0	0	0	0	0	0	0	0	0	0	0	0	0	0	0	0	0	0	0	0	0	0	0	0	0	0	0	0	0	0	0	0	0	0	0	0	0	0	0	0	0	0	0	0	0	0	0	0	0	0	0	0	0	0	0	0	0	0	0	0	0	0	0	0	0	0	0	0	0	0	0	
Average # of Memory Banks Accessed per Memory Operation per Warp=-nan

position of mrq chosen
0	0	0	0	0	0	0	0	0	0	0	0	0	0	0	0	

average position of mrq chosen = -nan
gpgpu_l2_write_miss = 0
gpgpu_l2_write_access = 0
gpgpu_l2_read_miss = 0
gpgpu_l2_read_access = 0
Cache L2_bank_000:
MSHR contents

DRAM[0]: 16 bks, busW=4 BL=8 CL=12, tRRD=2 tCCD=6, tRCD=12 tRAS=28 tRP=12 tRC=40
n_cmd=258305 n_nop=164783 n_act=11728 n_pre=11712 n_req=48342 n_rd=39920 n_write=30162 bw_util=0.5426
n_activity=240138 dram_eff=0.5837
bk0: 2366a 186900i bk1: 2488a 185386i bk2: 2436a 179663i bk3: 2402a 181385i bk4: 2524a 183332i bk5: 2544a 178877i bk6: 2358a 179744i bk7: 2396a 180388i bk8: 2528a 177270i bk9: 2486a 175410i bk10: 2556a 179155i bk11: 2644a 174155i bk12: 2576a 168973i bk13: 2510a 167755i bk14: 2622a 153305i bk15: 2484a 114719i 
dram_util_bins: 0 0 0 0 0 0 0 0 0 0
dram_eff_bins: 0 0 0 0 0 0 0 0 0 0
mrqq: max=16 avg=13.1747
Cache L2_bank_001:
MSHR contents

DRAM[1]: 16 bks, busW=4 BL=8 CL=12, tRRD=2 tCCD=6, tRCD=12 tRAS=28 tRP=12 tRC=40
n_cmd=258305 n_nop=164699 n_act=11772 n_pre=11756 n_req=48344 n_rd=39918 n_write=30160 bw_util=0.5426
n_activity=240549 dram_eff=0.5827
bk0: 2392a 186622i bk1: 2496a 184254i bk2: 2462a 180133i bk3: 2422a 181500i bk4: 2534a 184394i bk5: 2554a 179422i bk6: 2368a 180160i bk7: 2410a 180806i bk8: 2532a 178230i bk9: 2468a 176379i bk10: 2518a 179424i bk11: 2598a 174315i bk12: 2562a 169571i bk13: 2504a 167172i bk14: 2612a 152961i bk15: 2486a 116280i 
dram_util_bins: 0 0 0 0 0 0 0 0 0 0
dram_eff_bins: 0 0 0 0 0 0 0 0 0 0
mrqq: max=16 avg=13.1423
Cache L2_bank_002:
MSHR contents

DRAM[2]: 16 bks, busW=4 BL=8 CL=12, tRRD=2 tCCD=6, tRCD=12 tRAS=28 tRP=12 tRC=40
n_cmd=258305 n_nop=164786 n_act=11736 n_pre=11720 n_req=48319 n_rd=39916 n_write=30147 bw_util=0.5425
n_activity=240591 dram_eff=0.5824
bk0: 2396a 186233i bk1: 2520a 184068i bk2: 2464a 180004i bk3: 2428a 182116i bk4: 2526a 183044i bk5: 2526a 179595i bk6: 2356a 180512i bk7: 2382a 182083i bk8: 2496a 178054i bk9: 2452a 176533i bk10: 2512a 178916i bk11: 2610a 175312i bk12: 2562a 170158i bk13: 2536a 166688i bk14: 2644a 153190i bk15: 2506a 114643i 
dram_util_bins: 0 0 0 0 0 0 0 0 0 0
dram_eff_bins: 0 0 0 0 0 0 0 0 0 0
mrqq: max=16 avg=13.0928
Cache L2_bank_003:
MSHR contents

DRAM[3]: 16 bks, busW=4 BL=8 CL=12, tRRD=2 tCCD=6, tRCD=12 tRAS=28 tRP=12 tRC=40
n_cmd=258305 n_nop=164780 n_act=11779 n_pre=11763 n_req=48240 n_rd=39864 n_write=30119 bw_util=0.5419
n_activity=240386 dram_eff=0.5823
bk0: 2408a 186273i bk1: 2500a 185003i bk2: 2448a 181484i bk3: 2390a 181722i bk4: 2512a 183683i bk5: 2502a 179301i bk6: 2332a 181548i bk7: 2374a 181114i bk8: 2496a 178690i bk9: 2456a 175934i bk10: 2548a 179531i bk11: 2630a 174467i bk12: 2558a 170177i bk13: 2560a 167269i bk14: 2646a 152319i bk15: 2504a 114448i 
dram_util_bins: 0 0 0 0 0 0 0 0 0 0
dram_eff_bins: 0 0 0 0 0 0 0 0 0 0
mrqq: max=16 avg=13.0898
Cache L2_bank_004:
MSHR contents

DRAM[4]: 16 bks, busW=4 BL=8 CL=12, tRRD=2 tCCD=6, tRCD=12 tRAS=28 tRP=12 tRC=40
n_cmd=258305 n_nop=164857 n_act=11765 n_pre=11749 n_req=48214 n_rd=39838 n_write=30096 bw_util=0.5415
n_activity=240702 dram_eff=0.5811
bk0: 2390a 186225i bk1: 2474a 184155i bk2: 2422a 180482i bk3: 2390a 182405i bk4: 2522a 183704i bk5: 2498a 180447i bk6: 2352a 181549i bk7: 2378a 183481i bk8: 2514a 178004i bk9: 2464a 176470i bk10: 2548a 179757i bk11: 2650a 174582i bk12: 2572a 169723i bk13: 2546a 167941i bk14: 2646a 152708i bk15: 2472a 114082i 
dram_util_bins: 0 0 0 0 0 0 0 0 0 0
dram_eff_bins: 0 0 0 0 0 0 0 0 0 0
mrqq: max=16 avg=13.1219
Cache L2_bank_000:	Size = 131072 B (64 Set x 16-way x 128 byte line)
		Access = 41505, Miss = 19960 (0.481), PendingHit = 15811 (0.381)
Cache L2_bank_001:	Size = 131072 B (64 Set x 16-way x 128 byte line)
		Access = 41450, Miss = 19959 (0.482), PendingHit = 15809 (0.381)
Cache L2_bank_002:	Size = 131072 B (64 Set x 16-way x 128 byte line)
		Access = 41460, Miss = 19958 (0.481), PendingHit = 15776 (0.381)
Cache L2_bank_003:	Size = 131072 B (64 Set x 16-way x 128 byte line)
		Access = 41553, Miss = 19932 (0.48), PendingHit = 15736 (0.379)
Cache L2_bank_004:	Size = 131072 B (64 Set x 16-way x 128 byte line)
		Access = 41488, Miss = 19919 (0.48), PendingHit = 15731 (0.379)
L2 Cache Total Miss Rate = 0.481

icnt_total_pkts_mem_to_simt=419108
icnt_total_pkts_simt_to_mem=361896

LD_mem_lat_dist  0 0 0 0 0 0 0 0 0 0 0 0 0 0 0 0 0 0 0 0 0 0 0 0 0 0 0
ST_mem_lat_dist  0 0 0 0 0 0 0 0 0 0 0 0 0 0 0 0 0 0 0 0 0 0 0 0 0 0 0
Traffic 0 Stat
%=================================
% Average latency = 220.288
% Accepted packets = 0 at node 0 (avg = 0.0401428)
lat(3) = 220.288;
thru(3,:) = [ 0 0 0 0 0 0 0 0 0 0 0 0 0 0 0.184721 0.184611 0.184624 0.184582 0.184745 0 0 0 0 ];
% latency change    = 0.943678
% throughput change = 0.57809
Traffic 1 Stat
%=================================
% Average latency = 2.50685
% Accepted packets = 0 at node 14 (avg = 0.0425133)
lat(4) = 2.50685;
thru(4,:) = [ 0.0449028 0.0922401 0.0470101 0.0444709 0.0724209 0.0910621 0.057798 0.0908003 0.0446672 0.0726041 0.0922139 0.0884312 0.0462902 0.0928946 0 0 0 0 0 0 0 0 0 ];
% latency change    = 86.8745
% throughput change = 0.0557607
----------------------------Interconnect-DETAILS---------------------------------=======Traffic[0]class0 ======
Traffic[0]class0Overall average latency = 138.253 (2 samples)
Traffic[0]class0Overall average accepted rate = 0.0265525 (2 samples)
Traffic[0]class0Overall min accepted rate = 0 (2 samples)
traffic_manager/latency_stat_0_freq = [ 0 2527 2497 504 345 231 269 228 179 186 226 277 226 308 416 477 2203 2841 1745 1717 1748 1809 1785 1816 1941 1917 1958 1941 2031 1968 1984 1846 1860 1785 1799 1803 1821 1724 1732 1714 1611 1624 1522 1496 1532 1395 1414 1351 1412 1392 1326 1246 1232 1198 1114 1107 1111 1018 994 864 950 875 862 867 767 750 754 673 783 692 696 666 691 622 639 555 610 609 566 506 542 546 499 517 531 464 480 440 435 447 418 424 423 399 432 389 385 358 396 366 401 377 364 331 335 355 342 308 310 347 278 282 290 265 262 286 250 297 302 257 239 257 274 263 225 272 234 263 231 206 225 219 247 242 228 238 228 250 239 246 240 224 192 227 238 199 197 202 207 213 188 217 226 204 248 202 231 219 215 223 195 207 191 216 183 213 161 192 189 208 202 178 183 210 223 184 217 203 195 199 170 174 188 188 180 209 223 172 172 175 178 179 215 194 195 164 236 173 173 198 188 178 193 201 211 193 222 189 191 178 183 205 189 182 215 182 202 200 198 192 196 185 162 183 194 208 173 214 202 218 192 197 181 199 173 174 189 175 185 205 204 184 200 198 198 186 210 186 183 156 176 219 212 187 192 191 192 154 174 188 148 168 172 183 144 160 132 169 130 153 139 145 154 144 165 172 157 154 181 149 160 135 143 154 145 147 135 144 136 132 159 152 137 149 132 138 145 146 136 143 129 163 123 152 127 131 133 126 138 145 109 145 121 134 134 131 137 132 123 136 136 118 132 114 105 148 123 134 124 132 124 142 127 113 119 120 126 155 138 116 138 108 119 123 120 117 125 108 115 102 112 131 112 115 116 98 109 108 98 125 84 123 134 121 112 110 86 116 132 116 122 127 124 114 120 127 121 95 107 129 121 135 145 105 118 110 111 122 106 127 103 103 122 110 120 106 120 103 122 129 129 121 111 141 113 103 128 130 102 126 124 111 122 90 90 127 113 116 135 109 115 128 116 121 123 116 103 107 117 123 104 107 92 124 116 112 115 112 110 109 110 110 111 122 119 115 127 126 135 111 149 108 134 127 140 137 122 137 111 91 98 115 111 104 127 126 99 98 104 131 117 105 129 110 106 107 125 107 118 130 110 115 123 120 115 104 129 123 107 128 129 113 115 113 123 107 123 107 116 109 101 116 122 122 108 104 117 107 100 96 108 110 92 138 107 111 116 109 103 99 98 89 104 89 94 99 94 101 107 104 99 79 113 96 90 97 98 104 81 79 98 92 92 123 102 89 102 109 103 90 92 96 102 91 84 81 98 102 90 97 84 96 86 86 106 70 70 95 87 82 68 87 105 84 78 102 56 75 59 70 88 82 86 88 83 81 80 77 82 84 81 88 74 59 68 64 84 79 57 97 67 71 70 86 81 85 78 67 72 71 75 86 91 89 60 72 62 62 78 72 68 103 84 64 74 92 75 79 82 80 68 91 64 77 74 65 75 81 70 76 89 78 91 87 56 73 75 71 80 78 73 58 63 82 53 65 68 77 54 58 60 63 67 75 60 50 55 67 53 58 52 57 54 67 69 58 60 52 55 70 72 70 58 67 51 64 58 56 62 47 63 53 42 58 55 47 49 55 57 69 49 61 62 61 53 66 71 58 47 63 56 55 50 53 63 50 60 51 43 57 56 58 43 55 47 60 50 45 53 76 60 64 50 56 60 55 47 52 55 72 55 62 57 82 44 43 49 41 54 45 56 60 52 49 59 39 58 56 49 48 66 54 57 49 59 51 49 46 44 49 57 45 36 56 45 56 47 39 42 51 54 44 40 55 59 32 48 37 51 41 48 54 62 42 48 39 57 59 67 57 41 52 37 43 41 48 47 42 41 57 40 44 36 62 40 40 47 54 38 37 44 47 41 45 40 46 33 42 37 47 40 38 39 45 35 48 55 45 49 41 43 34 33 38 34 44 22 59 37 36 26 33 34 40 41 33 27 41 46 38 41 32 41 37 31 38 26 58 41 41 26 23 27 31 36 24 23 28 30 26 23 28 30 29 27 27 21 22 18 28 35 36 29 20 26 26 22 32 23 27 23 33 29 32 22 33 13 27 15 28 23 24 28 17 25 20 32 21 13 16 28 15 24 23 26 26 23 25 28 23 26 22 17 33 18 25 20 29 30 19 30 24 16 20 18 22 27 31 25 29 26 25 20 24 9 29 17 21 20 20 21 27 22 22 25 24 29 25 23 22 15 19 21 21 17 26 25 17 15 21 23 16 20 21 14 18 18 23 26 24 19 25 26 18 16 21 18 20 27 3228 ];
Traffic[0]class1Average hops = 1 (207456 samples)
traffic_manager/hop_stats_freq = [ 0 207456 0 0 0 0 0 0 0 0 0 0 0 0 0 0 0 0 0 0 ];
=======Traffic[1]class0 ======
Traffic[1]class0Overall average latency = 7.45698 (2 samples)
Traffic[1]class0Overall average accepted rate = 0.0529311 (2 samples)
Traffic[1]class0Overall min accepted rate = 0 (2 samples)
traffic_manager/latency_stat_0_freq = [ 0 128579 12249 3048 3423 34045 5513 1891 3462 1494 1330 594 441 373 293 236 335 166 128 123 89 124 63 38 32 32 38 25 17 8 4 13 8 6 5 5 11 2 0 6 1 1 1 0 1 0 1 1 2 0 0 0 0 0 0 0 0 0 0 0 0 0 0 0 0 0 0 0 0 0 0 0 0 0 0 0 0 0 0 0 0 0 0 0 0 0 0 0 0 0 0 0 0 0 0 0 0 0 0 0 0 0 0 0 0 0 0 0 0 0 0 0 0 0 0 0 0 0 0 0 0 0 0 0 0 0 0 0 0 0 0 0 0 0 0 0 0 0 0 0 0 0 0 0 0 0 0 0 0 0 0 0 0 0 0 0 0 0 0 0 0 0 0 0 0 0 0 0 0 0 0 0 0 0 0 0 0 0 0 0 0 0 0 0 0 0 0 0 0 0 0 0 0 0 0 0 0 0 0 0 0 0 0 0 0 0 0 0 0 0 0 0 0 0 0 0 0 0 0 0 0 0 0 0 0 0 0 0 0 0 0 0 0 0 0 0 0 0 0 0 0 0 0 0 0 0 0 0 0 0 0 0 0 0 0 0 0 0 0 0 0 0 0 0 0 0 0 0 0 0 0 0 0 0 0 0 0 0 0 0 0 0 0 0 0 0 0 0 0 0 0 0 0 0 0 0 0 0 0 0 0 0 0 0 0 0 0 0 0 0 0 0 0 0 0 0 0 0 0 0 0 0 0 0 0 0 0 0 0 0 0 0 0 0 0 0 0 0 0 0 0 0 0 0 0 0 0 0 0 0 0 0 0 0 0 0 0 0 0 0 0 0 0 0 0 0 0 0 0 0 0 0 0 0 0 0 0 0 0 0 0 0 0 0 0 0 0 0 0 0 0 0 0 0 0 0 0 0 0 0 0 0 0 0 0 0 0 0 0 0 0 0 0 0 0 0 0 0 0 0 0 0 0 0 0 0 0 0 0 0 0 0 0 0 0 0 0 0 0 0 0 0 0 0 0 0 0 0 0 0 0 0 0 0 0 0 0 0 0 0 0 0 0 0 0 0 0 0 0 0 0 0 0 0 0 0 0 0 0 0 0 0 0 0 0 0 0 0 0 0 0 0 0 0 0 0 0 0 0 0 0 0 0 0 0 0 0 0 0 0 0 0 0 0 0 0 0 0 0 0 0 0 0 0 0 0 0 0 0 0 0 0 0 0 0 0 0 0 0 0 0 0 0 0 0 0 0 0 0 0 0 0 0 0 0 0 0 0 0 0 0 0 0 0 0 0 0 0 0 0 0 0 0 0 0 0 0 0 0 0 0 0 0 0 0 0 0 0 0 0 0 0 0 0 0 0 0 0 0 0 0 0 0 0 0 0 0 0 0 0 0 0 0 0 0 0 0 0 0 0 0 0 0 0 0 0 0 0 0 0 0 0 0 0 0 0 0 0 0 0 0 0 0 0 0 0 0 0 0 0 0 0 0 0 0 0 0 0 0 0 0 0 0 0 0 0 0 0 0 0 0 0 0 0 0 0 0 0 0 0 0 0 0 0 0 0 0 0 0 0 0 0 0 0 0 0 0 0 0 0 0 0 0 0 0 0 0 0 0 0 0 0 0 0 0 0 0 0 0 0 0 0 0 0 0 0 0 0 0 0 0 0 0 0 0 0 0 0 0 0 0 0 0 0 0 0 0 0 0 0 0 0 0 0 0 0 0 0 0 0 0 0 0 0 0 0 0 0 0 0 0 0 0 0 0 0 0 0 0 0 0 0 0 0 0 0 0 0 0 0 0 0 0 0 0 0 0 0 0 0 0 0 0 0 0 0 0 0 0 0 0 0 0 0 0 0 0 0 0 0 0 0 0 0 0 0 0 0 0 0 0 0 0 0 0 0 0 0 0 0 0 0 0 0 0 0 0 0 0 0 0 0 0 0 0 0 0 0 0 0 0 0 0 0 0 0 0 0 0 0 0 0 0 0 0 0 0 0 0 0 0 0 0 0 0 0 0 0 0 0 0 0 0 0 0 0 0 0 0 0 0 0 0 0 0 0 0 0 0 0 0 0 0 0 0 0 0 0 0 0 0 0 0 0 0 0 0 0 0 0 0 0 0 0 0 0 0 0 0 0 0 0 0 0 0 0 0 0 0 0 0 0 0 0 0 0 0 0 0 0 0 0 0 0 0 0 0 0 0 0 0 0 0 0 0 0 0 0 0 0 0 0 0 0 0 0 0 0 0 0 0 0 0 0 0 0 0 0 0 0 ];
Traffic[1]class1Average hops = 1 (207456 samples)
traffic_manager/hop_stats_freq = [ 0 207456 0 0 0 0 0 0 0 0 0 0 0 0 0 0 0 0 0 0 ];
----------------------------END-of-Interconnect-DETAILS-------------------------

gpgpu_simulation_time = 0 days, 0 hrs, 1 min, 36 sec (96 sec)
gpgpu_simulation_rate = 222859 (inst/sec)
gpgpu_simulation_rate = 2152 (cycle/sec)

kernel '_Z17histo_main_kernelP6uchar4jjjjjPjS1_S1_' transfer to GPU hardware scheduler
kernel_name = _Z17histo_main_kernelP6uchar4jjjjjPjS1_S1_ 
kernel_launch_uid = 3 
gpu_sim_cycle = 485960
gpu_sim_insn = 157206464
gpu_ipc =     323.4967
gpu_tot_sim_cycle = 692605
gpu_tot_sim_insn = 178600998
gpu_tot_ipc =     257.8685
gpu_tot_issued_cta = 0
gpu_stall_dramfull = 759025
gpu_stall_icnt2sh    = 1212207
gpu_total_sim_rate=346125
Cache L1D_000:	Size = 16384 B (32 Set x 4-way x 128 byte line)
		Access = 133162, Miss = 30940 (0.232), PendingHit = 101287 (0.761)
Cache L1D_001:	Size = 16384 B (32 Set x 4-way x 128 byte line)
		Access = 135350, Miss = 34999 (0.259), PendingHit = 99694 (0.737)
Cache L1D_002:	Size = 16384 B (32 Set x 4-way x 128 byte line)
		Access = 133302, Miss = 33009 (0.248), PendingHit = 99838 (0.749)
Cache L1D_003:	Size = 16384 B (32 Set x 4-way x 128 byte line)
		Access = 132592, Miss = 32608 (0.246), PendingHit = 99457 (0.75)
Cache L1D_004:	Size = 16384 B (32 Set x 4-way x 128 byte line)
		Access = 133852, Miss = 33635 (0.251), PendingHit = 99395 (0.743)
Cache L1D_005:	Size = 16384 B (32 Set x 4-way x 128 byte line)
		Access = 135330, Miss = 34869 (0.258), PendingHit = 99668 (0.736)
Cache L1D_006:	Size = 16384 B (32 Set x 4-way x 128 byte line)
		Access = 133710, Miss = 33113 (0.248), PendingHit = 99766 (0.746)
Cache L1D_007:	Size = 16384 B (32 Set x 4-way x 128 byte line)
		Access = 134534, Miss = 34509 (0.257), PendingHit = 99346 (0.738)
Cache L1D_008:	Size = 16384 B (32 Set x 4-way x 128 byte line)
		Access = 132344, Miss = 32492 (0.246), PendingHit = 99317 (0.75)
Cache L1D_009:	Size = 16384 B (32 Set x 4-way x 128 byte line)
		Access = 134232, Miss = 33642 (0.251), PendingHit = 99496 (0.741)
Cache L1D_010:	Size = 16384 B (32 Set x 4-way x 128 byte line)
		Access = 134442, Miss = 32423 (0.241), PendingHit = 101389 (0.754)
Cache L1D_011:	Size = 16384 B (32 Set x 4-way x 128 byte line)
		Access = 135202, Miss = 34720 (0.257), PendingHit = 99414 (0.735)
Cache L1D_012:	Size = 16384 B (32 Set x 4-way x 128 byte line)
		Access = 132344, Miss = 32558 (0.246), PendingHit = 99261 (0.75)
Cache L1D_013:	Size = 16384 B (32 Set x 4-way x 128 byte line)
		Access = 135282, Miss = 35019 (0.259), PendingHit = 99643 (0.737)
total_dl1_misses=468536
total_dl1_accesses=1875678
total_dl1_miss_rate= 0.249796
Shader 0 dynamic_warp_id issue ditsribution:
dynamic_warp_id:
0, 1, 2, 3, 4, 5, 6, 7, 8, 9, 10, 11, 12, 13, 14, 15, 16, 17, 18, 19, 20, 21, 22, 23, 24, 25, 26, 27, 28, 29, 30, 31, 32, 33, 34, 35, 36, 37, 38, 39, 40, 41, 42, 43, 44, 45, 46, 47, 48, 49, 50, 51, 52, 53, 54, 55, 56, 57, 58, 59, 60, 61, 62, 63, 64, 65, 66, 67, 68, 69, 70, 71, 72, 73, 74, 75, 76, 77, 78, 79, 80, 81, 82, 83, 84, 85, 86, 87, 88, 89, 90, 91, 92, 93, 94, 95, 96, 97, 98, 99, 100, 101, 102, 103, 104, 105, 106, 107, 108, 109, 110, 111, 112, 113, 114, 115, 116, 117, 118, 119, 120, 121, 122, 123, 124, 125, 126, 127, 128, 129, 130, 131, 132, 133, 134, 135, 136, 137, 138, 139, 140, 141, 142, 143, 144, 145, 146, 147, 148, 149, 150, 151, 152, 153, 154, 155, 156, 157, 158, 159, 160, 161, 162, 163, 164, 165, 166, 167, 168, 169, 170, 171, 172, 173, 174, 175, 176, 177, 178, 179, 180, 181, 182, 183, 184, 185, 186, 187, 188, 189, 190, 191, 192, 193, 194, 195, 196, 197, 198, 199, 200, 201, 202, 203, 204, 205, 206, 207, 208, 209, 210, 211, 212, 213, 214, 215, 216, 217, 218, 219, 220, 221, 222, 223, 224, 225, 226, 227, 228, 229, 230, 231, 232, 233, 234, 235, 236, 237, 238, 239, 240, 241, 242, 243, 244, 245, 246, 247, 248, 249, 250, 251, 252, 253, 254, 255, 256, 257, 258, 259, 260, 261, 262, 263, 264, 265, 266, 267, 268, 269, 270, 271, 272, 273, 274, 275, 276, 277, 278, 279, 280, 281, 282, 283, 284, 285, 286, 287, 288, 289, 290, 291, 292, 293, 294, 295, 296, 297, 298, 299, 300, 301, 302, 303, 304, 305, 306, 307, 308, 309, 310, 311, 312, 313, 314, 315, 316, 317, 318, 319, 320, 321, 322, 323, 324, 325, 326, 327, 328, 329, 330, 331, 332, 333, 334, 335, 336, 337, 338, 339, 340, 341, 342, 343, 344, 345, 346, 347, 348, 349, 350, 351, 352, 353, 354, 355, 356, 357, 358, 359, 360, 361, 362, 363, 364, 365, 366, 367, 
distro:
269, 201, 188, 188, 175, 175, 175, 175, 162, 162, 162, 162, 162, 162, 162, 162, 269, 201, 188, 188, 175, 175, 175, 175, 162, 162, 162, 162, 162, 162, 162, 162, 269, 201, 188, 188, 175, 175, 175, 175, 162, 162, 162, 162, 162, 162, 162, 162, 269, 201, 188, 188, 175, 175, 175, 175, 162, 162, 162, 162, 162, 162, 162, 162, 269, 201, 188, 188, 175, 175, 175, 175, 162, 162, 162, 162, 162, 162, 162, 162, 269, 201, 188, 188, 175, 175, 175, 175, 162, 162, 162, 162, 162, 162, 162, 162, 507, 507, 507, 507, 507, 507, 507, 507, 507, 507, 507, 507, 507, 507, 507, 507, 507, 507, 507, 507, 507, 507, 507, 507, 507, 507, 507, 507, 507, 507, 507, 507, 507, 507, 507, 507, 507, 507, 507, 507, 507, 507, 507, 507, 507, 507, 507, 507, 2791, 2791, 2791, 2791, 2791, 2791, 2791, 2791, 2791, 2791, 2791, 2791, 2791, 2791, 2791, 2791, 1339, 1339, 1339, 1339, 1339, 1339, 1339, 1339, 1339, 1339, 1339, 1339, 1339, 1339, 1339, 1339, 1339, 1339, 1339, 1339, 1339, 1339, 1339, 1339, 1339, 1339, 1339, 1339, 1339, 1339, 1339, 1339, 1331, 1331, 1331, 1331, 1331, 1331, 1331, 1331, 1331, 1331, 1331, 1331, 1331, 1331, 1331, 1331, 3201, 3243, 3243, 3215, 3173, 3117, 3201, 3229, 3243, 3229, 3159, 3145, 3215, 3173, 3201, 3229, 3179, 3179, 3109, 3193, 3123, 3137, 3221, 3235, 3165, 3151, 3193, 3193, 3179, 3095, 3193, 3179, 3347, 3347, 3347, 3347, 3347, 3347, 3347, 3347, 3347, 3347, 3347, 3347, 3347, 3347, 3347, 3347, 3347, 3347, 3347, 3347, 3347, 3347, 3347, 3347, 3347, 3347, 3347, 3347, 3347, 3347, 3347, 3347, 1513, 1485, 1443, 1569, 1485, 1513, 1513, 1583, 1541, 1541, 1569, 1457, 1513, 1513, 1499, 1513, 1527, 1569, 1555, 1555, 1499, 1583, 1569, 1583, 1569, 1555, 1555, 1541, 1499, 1513, 1527, 1541, 1331, 1331, 1331, 1331, 1331, 1331, 1331, 1331, 1331, 1331, 1331, 1331, 1331, 1331, 1331, 1331, 1339, 1339, 1339, 1339, 1339, 1339, 1339, 1339, 1339, 1339, 1339, 1339, 1339, 1339, 1339, 1339, 1339, 1339, 1339, 1339, 1339, 1339, 1339, 1339, 1339, 1339, 1339, 1339, 1339, 1339, 1339, 1339, 1339, 1339, 1339, 1339, 1339, 1339, 1339, 1339, 1339, 1339, 1339, 1339, 1339, 1339, 1339, 1339, 
gpgpu_n_tot_thrd_icount = 225359360
gpgpu_n_tot_w_icount = 7042480
gpgpu_n_icache_hits = 4035118
gpgpu_n_icache_misses = 19216
gpgpu_n_l1dcache_read_hits = 10171
gpgpu_n_l1dcache_read_misses = 1865507
gpgpu_n_l1dcache_write_accesses = 154440
gpgpu_n_l1dcache_wirte_misses = 154440
gpgpu_n_tcache_hits = 0
gpgpu_n_tcache_misses = 0
gpgpu_n_ccache_hits = 592688
gpgpu_n_ccache_misses = 448
gpgpu_n_stall_shd_mem = 5098010
gpgpu_n_mem_read_local = 0
gpgpu_n_mem_write_local = 0
gpgpu_n_mem_read_global = 669368
gpgpu_n_mem_write_global = 154440
gpgpu_n_mem_texture = 0
gpgpu_n_mem_const = 14
gpgpu_n_load_insn  = 33768768
gpgpu_n_store_insn = 2071680
gpgpu_n_shmem_insn = 6867968
gpgpu_n_tex_insn = 0
gpgpu_n_const_mem_insn = 0
gpgpu_n_param_mem_insn = 37863916
gpgpu_n_shmem_bkconflict = 0
gpgpu_n_cache_bkconflict = 0
gpgpu_n_intrawarp_mshr_merge = 0
gpgpu_n_cmem_portconflict = 2975
gpgpu_stall_shd_mem[c_mem][bk_conf] = 2975
gpgpu_stall_shd_mem[c_mem][mshr_rc] = 0
gpgpu_stall_shd_mem[c_mem][icnt_rc] = 0
gpgpu_stall_shd_mem[t_mem][mshr_rc] = 0
gpgpu_stall_shd_mem[t_mem][icnt_rc] = 0
gpgpu_stall_shd_mem[s_mem][bk_conf] = 95112
gpgpu_stall_shd_mem[gl_mem][bk_conf] = 0
gpgpu_stall_shd_mem[gl_mem][coal_stall] = 4999923
gpgpu_stall_shd_mem[g_mem_ld][mshr_rc] = 0
gpgpu_stall_shd_mem[g_mem_ld][icnt_rc] = 0
gpgpu_stall_shd_mem[g_mem_ld][wb_icnt_rc] = 0
gpgpu_stall_shd_mem[g_mem_ld][wb_rsrv_fail] = 0
gpgpu_stall_shd_mem[g_mem_st][mshr_rc] = 0
gpgpu_stall_shd_mem[g_mem_st][icnt_rc] = 0
gpgpu_stall_shd_mem[g_mem_st][wb_icnt_rc] = 0
gpgpu_stall_shd_mem[g_mem_st][wb_rsrv_fail] = 0
gpgpu_stall_shd_mem[l_mem_ld][mshr_rc] = 0
gpgpu_stall_shd_mem[l_mem_ld][icnt_rc] = 0
gpgpu_stall_shd_mem[l_mem_ld][wb_icnt_rc] = 0
gpgpu_stall_shd_mem[l_mem_ld][wb_rsrv_fail] = 0
gpgpu_stall_shd_mem[l_mem_st][mshr_rc] = 0
gpgpu_stall_shd_mem[l_mem_st][icnt_rc] = 0
gpgpu_stall_shd_mem[l_mem_ld][wb_icnt_rc] = 0
gpgpu_stall_shd_mem[l_mem_ld][wb_rsrv_fail] = 0
gpu_reg_bank_conflict_stalls = 0
Warp Occupancy Distribution:
Stall:5686380	W0_Idle:1367731	W0_Scoreboard:4314765	W1:234474	W2:210470	W3:181146	W4:138692	W5:82446	W6:50806	W7:38790	W8:43856	W9:57666	W10:76300	W11:92400	W12:104846	W13:108710	W14:108192	W15:93310	W16:76042	W17:54698	W18:68543	W19:20720	W20:10248	W21:4886	W22:1792	W23:658	W24:196	W25:56	W26:0	W27:0	W28:0	W29:0	W30:0	W31:0	W32:5182537
maxmrqlatency = 604 
maxdqlatency = 0 
maxmflatency = 1600 
averagemflatency = 327 
max_icnt2mem_latency = 4224 
max_icnt2sh_latency = 206644 
mrq_lat_table:233685 	21212 	23487 	29944 	58463 	68670 	63106 	27135 	2142 	13 	0 	0 	0 	0 	0 	0 	0 	0 	0 	0 	0 	0 	0 	0 	0 	0 	0 	0 	0 	0 	0 	0 	
dq_lat_table:0 	0 	0 	0 	0 	0 	0 	0 	0 	0 	0 	0 	0 	0 	0 	0 	0 	0 	0 	0 	0 	0 	0 	0 	0 	0 	0 	0 	0 	0 	0 	0 	
mf_lat_table:0 	0 	0 	0 	0 	0 	12685 	405275 	262560 	138101 	5201 	0 	0 	0 	0 	0 	0 	0 	0 	0 	0 	0 	0 	0 	0 	0 	0 	0 	0 	0 	0 	0 	
icnt2mem_lat_table:337 	340589 	20481 	74616 	118938 	86729 	54173 	56818 	60620 	11610 	117 	22 	1 	0 	0 	0 	0 	0 	0 	0 	0 	0 	0 	0 	
icnt2sh_lat_table:115 	212540 	204447 	245563 	6710 	7 	0 	0 	0 	0 	0 	0 	0 	0 	15263 	28314 	49889 	60974 	0 	0 	0 	0 	0 	0 	
mf_lat_pw_table:0 	0 	0 	0 	0 	0 	6 	738 	304 	329 	0 	0 	0 	0 	0 	0 	0 	0 	0 	0 	0 	0 	0 	0 	0 	0 	0 	0 	0 	0 	0 	0 	
maximum concurrent accesses to same row:
dram[0]:        33        32        32        32        49        40        32        47        32        32        32        32        53        39        32        43 
dram[1]:        32        33        32        32        48        43        32        49        32        32        32        32        55        41        32        43 
dram[2]:        32        32        32        32        32        48        32        48        32        32        32        32        62        46        32        32 
dram[3]:        32        32        32        37        49        46        32        49        32        32        32        32        58        46        32        32 
dram[4]:        32        32        32        40        32        45        32        40        32        32        32        32        52        40        32        46 
maximum service time to same row:
dram[0]:     25416     25450     25295     21155     21054     21130     18914     21868     21644     21711     21857     21770     21705     21899     21940     25040 
dram[1]:     24796     25508     25213     21205     21002     20977     18938     21898     21678     21620     21797     21672     21729     21958     22005     25189 
dram[2]:     25144     25491     25362     21291     20846     21027     18950     21799     21628     21713     21872     21856     21816     21848     21880     25167 
dram[3]:     25300     25554     25469     21211     20994     21062     18834     21899     21661     21751     21768     21708     21713     21800     22105     25340 
dram[4]:     25232     25204     25331     21091     20958     20993     18917     21761     21560     21701     21783     21951     21813     21916     21870     25392 
average row accesses per activate:
dram[0]:  4.309129  4.438461  4.462963  4.632192  4.747735  4.640816  4.505435  4.555937  4.658654  4.513459  4.510638  4.478346  4.550403  4.567275  4.576816  4.460943 
dram[1]:  4.225371  4.536097  4.493916  4.509220  4.707469  4.475442  4.405298  4.409782  4.657300  4.424703  4.546865  4.578199  4.475182  4.458637  4.472071  4.448107 
dram[2]:  4.256305  4.490085  4.370396  4.599855  4.543334  4.632043  4.534377  4.472727  4.793888  4.520918  4.526882  4.542781  4.582373  4.562753  4.590814  4.465821 
dram[3]:  4.271984  4.465117  4.518306  4.715350  4.710235  4.775983  4.559369  4.518040  4.599728  4.480589  4.531815  4.473026  4.618132  4.469266  4.486339  4.451228 
dram[4]:  4.267625  4.535484  4.478571  4.678178  4.527261  4.558015  4.533424  4.564949  4.568720  4.491594  4.411649  4.547031  4.444518  4.487740  4.503770  4.524286 
average row locality = 527857/116780 = 4.520098
number of total memory accesses made:
dram[0]:         0         0         0         0         0         0         0         0         0         0         0         0         0         0         0         0 
dram[1]:         0         0         0         0         0         0         0         0         0         0         0         0         0         0         0         0 
dram[2]:         0         0         0         0         0         0         0         0         0         0         0         0         0         0         0         0 
dram[3]:         0         0         0         0         0         0         0         0         0         0         0         0         0         0         0         0 
dram[4]:         0         0         0         0         0         0         0         0         0         0         0         0         0         0         0         0 
total accesses: 0
min_bank_accesses = 0!
min_chip_accesses = 0!
number of total read accesses:
dram[0]:      4539      4616      4573      4602      4908      4919      4841      4855      4905      4880      4916      4931      4890      4870      4735      4599 
dram[1]:      4566      4627      4581      4609      4901      4936      4845      4872      4905      4865      4888      4897      4879      4852      4744      4598 
dram[2]:      4568      4622      4590      4606      4909      4922      4837      4856      4877      4865      4878      4910      4887      4878      4767      4604 
dram[3]:      4571      4620      4593      4576      4895      4908      4826      4857      4890      4872      4904      4927      4864      4883      4765      4602 
dram[4]:      4553      4598      4573      4593      4904      4905      4844      4854      4892      4863      4893      4939      4862      4888      4752      4602 
total reads: 382788
bank skew: 4939/4539 = 1.09
chip skew: 76579/76515 = 1.00
number of total write accesses:
dram[0]:      1692      1731      1693      1758      1905      1903      1791      1783      1878      1827      1868      1894      1881      1885      1819      1740 
dram[1]:      1696      1719      1697      1749      1906      1898      1807      1800      1890      1834      1855      1865      1883      1885      1821      1745 
dram[2]:      1676      1718      1699      1751      1906      1901      1824      1786      1868      1835      1858      1886      1872      1884      1830      1733 
dram[3]:      1696      1716      1701      1752      1916      1893      1817      1780      1867      1822      1862      1872      1860      1879      1803      1741 
dram[4]:      1682      1729      1697      1774      1905      1891      1802      1788      1856      1816      1848      1877      1867      1884      1819      1732 
total reads: 145069
bank skew: 1916/1676 = 1.14
chip skew: 29050/28967 = 1.00
average mf latency per bank:
[...]
maxmrqlatency = 785 
maxdqlatency = 0 
maxmflatency = 1730 
averagemflatency = 346 
max_icnt2mem_latency = 4224 
max_icnt2sh_latency = 1524210 
mrq_lat_table:511015 	46492 	52450 	69888 	140735 	175848 	169482 	70721 	6087 	63 	0 	0 	0 	0 	0 	0 	0 	0 	0 	0 	0 	0 	0 	0 	0 	0 	0 	0 	0 	0 	0 	0 	
dq_lat_table:0 	0 	0 	0 	0 	0 	0 	0 	0 	0 	0 	0 	0 	0 	0 	0 	0 	0 	0 	0 	0 	0 	0 	0 	0 	0 	0 	0 	0 	0 	0 	0 	
mf_lat_table:0 	0 	0 	0 	0 	0 	23304 	817458 	604787 	359721 	13935 	0 	0 	0 	0 	0 	0 	0 	0 	0 	0 	0 	0 	0 	0 	0 	0 	0 	0 	0 	0 	0 	
icnt2mem_lat_table:646 	690835 	47067 	155553 	251948 	209174 	140047 	139541 	157662 	29034 	278 	52 	1 	0 	0 	0 	0 	0 	0 	0 	0 	0 	0 	0 	
icnt2sh_lat_table:221 	454608 	404378 	506048 	13980 	18 	0 	0 	0 	0 	0 	0 	0 	0 	15263 	28314 	49889 	60974 	0 	219976 	65536 	0 	0 	0 	
mf_lat_pw_table:0 	0 	0 	0 	0 	0 	9 	1449 	754 	816 	0 	0 	0 	0 	0 	0 	0 	0 	0 	0 	0 	0 	0 	0 	0 	0 	0 	0 	0 	0 	0 	0 	
maximum concurrent accesses to same row:
dram[0]:        40        40        42        80        55        45        60        80        75        65        45        75        59        40        33        53 
dram[1]:        40        33        36        80        65        45        60        75        80        60        45        70        94        50        55        58 
dram[2]:        45        44        36        80        45        55        55        80        80        55        50        70        62        46        35        56 
dram[3]:        70        44        40        80        67        75        57        75        80        41        50        65        58        50        36        53 
dram[4]:        50        35        40        80        60        50        60        80        80        60        59        80        70        40        35        55 
maximum service time to same row:
dram[0]:     25416     25450     25295     21155     21054     21130     18914     21868     21644     21711     21857     21770     21770     21899     21940     25068 
dram[1]:     24796     25508     25213     21205     21002     20977     18938     21898     21678     21665     21797     21672     21729     21958     22005     25189 
dram[2]:     25156     25491     25362     21291     20985     21027     18950     21799     21628     21713     21872     21856     21816     21870     21880     25167 
dram[3]:     25300     25554     25469     21211     20994     21062     18840     21899     21661     21751     21828     21708     21715     21800     22105     25340 
dram[4]:     25232     25258     25331     21091     21054     20993     18917     21761     21581     21701     21783     21951     21813     21916     21870     25392 
average row accesses per activate:
dram[0]:  4.430810  4.554622  4.543004  4.545125  4.662013  4.534369  4.499286  4.650219  4.669951  4.541306  4.606620  4.476862  4.449518  4.419683  4.444186  4.586936 
dram[1]:  4.393744  4.494652  4.445266  4.512552  4.629769  4.455700  4.412291  4.593903  4.697640  4.457078  4.574518  4.554593  4.447698  4.365622  4.458735  4.482459 
dram[2]:  4.364877  4.527338  4.413197  4.564219  4.564920  4.538107  4.468989  4.660041  4.783438  4.510779  4.593474  4.542193  4.498994  4.441319  4.481287  4.532121 
dram[3]:  4.438421  4.534333  4.497456  4.561590  4.691857  4.677362  4.517647  4.736858  4.725000  4.527931  4.549304  4.525549  4.515327  4.379832  4.403509  4.465594 
dram[4]:  4.450980  4.511191  4.547937  4.616794  4.675131  4.579208  4.599358  4.769093  4.697865  4.650030  4.528340  4.571717  4.360670  4.414407  4.468067  4.586716 
average row locality = 1242781/274060 = 4.534704
number of total memory accesses made:
dram[0]:         0         0         0         0         0         0         0         0         0         0         0         0         0         0         0         0 
dram[1]:         0         0         0         0         0         0         0         0         0         0         0         0         0         0         0         0 
dram[2]:         0         0         0         0         0         0         0         0         0         0         0         0         0         0         0         0 
dram[3]:         0         0         0         0         0         0         0         0         0         0         0         0         0         0         0         0 
dram[4]:         0         0         0         0         0         0         0         0         0         0         0         0         0         0         0         0 
total accesses: 0
min_bank_accesses = 0!
min_chip_accesses = 0!
number of total read accesses:
dram[0]:     10055     10151     10075     10131     10772     10674     10606     10661     10718     10575     10618     10691     10594     10550     10303     10067 
dram[1]:     10092     10165     10095     10149     10767     10697     10617     10686     10713     10548     10582     10641     10558     10530     10318     10061 
dram[2]:     10107     10171     10102     10133     10778     10678     10586     10663     10669     10538     10556     10659     10568     10563     10338     10080 
dram[3]:     10112     10151     10100     10084     10764     10645     10573     10660     10687     10548     10591     10691     10559     10576     10344     10092 
dram[4]:     10081     10134     10069     10135     10768     10640     10596     10663     10703     10548     10590     10698     10575     10573     10325     10067 
total reads: 835991
bank skew: 10778/10055 = 1.07
chip skew: 167241/167165 = 1.00
number of total write accesses:
dram[0]:      4930      5025      4926      4927      5256      5092      5146      5266      5398      5147      5109      5175      5095      5078      4985      4891 
dram[1]:      4939      4964      4930      4950      5252      5094      5179      5287      5414      5132      5072      5127      5089      5064      4971      4888 
dram[2]:      4930      4982      4947      4970      5254      5101      5194      5279      5389      5155      5071      5166      5084      5066      4988      4876 
dram[3]:      4952      4971      4926      4951      5254      5099      5171      5289      5378      5096      5095      5162      5055      5060      4967      4899 
dram[4]:      4901      4983      4921      4985      5249      5085      5166      5261      5359      5104      5069      5175      5058      5054      4996      4849 
total reads: 406790
bank skew: 5414/4849 = 1.12
chip skew: 81452/81215 = 1.00
average mf latency per bank:
dram[0]:        487       487       488       527       525       529       531       523       514       502       475       488       495       489       489       495
dram[1]:        489       495       497       535       531       534       533       523       518       505       482       498       500       496       496       500
dram[2]:        495       501       499       536       532       535       535       526       520       504       486       496       495       495       493       498
dram[3]:        490       494       494       540       524       531       533       526       515       503       481       495       502       495       493       497
dram[4]:        486       490       492       532       524       530       532       524       515       502       482       489       498       490       489       495
maximum mf latency per bank:
dram[0]:       1497      1709      1689      1498      1508      1593      1617      1554      1503      1519      1276      1445      1360      1497      1303      1406
dram[1]:       1539      1353      1419      1347      1407      1496      1460      1483      1410      1392      1511      1377      1417      1730      1337      1496
dram[2]:       1505      1617      1509      1430      1381      1600      1424      1385      1416      1414      1325      1417      1520      1456      1439      1536
dram[3]:       1450      1458      1461      1402      1473      1569      1512      1555      1432      1377      1375      1535      1494      1486      1545      1506
dram[4]:       1527      1333      1527      1398      1531      1394      1342      1454      1484      1412      1496      1569      1417      1504      1431      1445

Number of Memory Banks Accessed per Memory Operation per Warp (from 0):
0	0	0	0	0	0	0	0	0	0	0	0	0	0	0	0	0	0	0	0	0	0	0	0	0	0	0	0	0	0	0	0	0	0	0	0	0	0	0	0	0	0	0	0	0	0	0	0	0	0	0	0	0	0	0	0	0	0	0	0	0	0	0	0	0	0	0	0	0	0	0	0	0	0	0	0	0	0	0	0	
Average # of Memory Banks Accessed per Memory Operation per Warp=-nan

position of mrq chosen
0	0	0	0	0	0	0	0	0	0	0	0	0	0	0	0	

average position of mrq chosen = -nan
gpgpu_l2_write_miss = 0
gpgpu_l2_write_access = 0
gpgpu_l2_read_miss = 0
gpgpu_l2_read_access = 0
Cache L2_bank_000:
MSHR contents

DRAM[0]: 16 bks, busW=4 BL=8 CL=12, tRRD=2 tCCD=6, tRCD=12 tRAS=28 tRP=12 tRC=40
n_cmd=1905257 n_nop=1370292 n_act=54805 n_pre=54789 n_req=248687 n_rd=334482 n_write=90889 bw_util=0.4465
n_activity=1530534 dram_eff=0.5558
bk0: 20110a 1635877i bk1: 20302a 1634127i bk2: 20150a 1627552i bk3: 20262a 1631562i bk4: 21544a 1638836i bk5: 21348a 1629322i bk6: 21212a 1629625i bk7: 21322a 1625306i bk8: 21436a 1621230i bk9: 21150a 1609432i bk10: 21236a 1607121i bk11: 21382a 1583277i bk12: 21188a 1557914i bk13: 21100a 1513913i bk14: 20606a 1415985i bk15: 20134a 1203684i 
dram_util_bins: 0 0 0 0 0 0 0 0 0 0
dram_eff_bins: 0 0 0 0 0 0 0 0 0 0
mrqq: max=16 avg=5.34161
Cache L2_bank_001:
MSHR contents

DRAM[1]: 16 bks, busW=4 BL=8 CL=12, tRRD=2 tCCD=6, tRCD=12 tRAS=28 tRP=12 tRC=40
n_cmd=1905257 n_nop=1369434 n_act=55264 n_pre=55248 n_req=248571 n_rd=334438 n_write=90873 bw_util=0.4465
n_activity=1528167 dram_eff=0.5566
bk0: 20184a 1633072i bk1: 20330a 1631354i bk2: 20190a 1626325i bk3: 20298a 1627884i bk4: 21534a 1636543i bk5: 21394a 1625089i bk6: 21234a 1623260i bk7: 21372a 1619830i bk8: 21426a 1615926i bk9: 21096a 1606272i bk10: 21164a 1604556i bk11: 21282a 1579975i bk12: 21116a 1554749i bk13: 21060a 1511723i bk14: 20636a 1413902i bk15: 20122a 1205523i 
dram_util_bins: 0 0 0 0 0 0 0 0 0 0
dram_eff_bins: 0 0 0 0 0 0 0 0 0 0
mrqq: max=16 avg=5.39089
Cache L2_bank_002:
MSHR contents

DRAM[2]: 16 bks, busW=4 BL=8 CL=12, tRRD=2 tCCD=6, tRCD=12 tRAS=28 tRP=12 tRC=40
n_cmd=1905257 n_nop=1370214 n_act=54893 n_pre=54877 n_req=248641 n_rd=334378 n_write=90895 bw_util=0.4464
n_activity=1529096 dram_eff=0.5562
bk0: 20214a 1632092i bk1: 20342a 1629690i bk2: 20204a 1626144i bk3: 20266a 1629615i bk4: 21556a 1635848i bk5: 21356a 1627030i bk6: 21172a 1623349i bk7: 21326a 1622389i bk8: 21338a 1616866i bk9: 21076a 1607249i bk10: 21112a 1604355i bk11: 21318a 1582641i bk12: 21136a 1555929i bk13: 21126a 1509943i bk14: 20676a 1416715i bk15: 20160a 1204095i 
dram_util_bins: 0 0 0 0 0 0 0 0 0 0
dram_eff_bins: 0 0 0 0 0 0 0 0 0 0
mrqq: max=16 avg=5.39335
Cache L2_bank_003:
MSHR contents

DRAM[3]: 16 bks, busW=4 BL=8 CL=12, tRRD=2 tCCD=6, tRCD=12 tRAS=28 tRP=12 tRC=40
n_cmd=1905257 n_nop=1370713 n_act=54666 n_pre=54650 n_req=248502 n_rd=334354 n_write=90874 bw_util=0.4464
n_activity=1531690 dram_eff=0.5552
bk0: 20224a 1632990i bk1: 20302a 1632388i bk2: 20200a 1627133i bk3: 20168a 1629088i bk4: 21528a 1637178i bk5: 21290a 1626928i bk6: 21146a 1626131i bk7: 21320a 1622968i bk8: 21374a 1618193i bk9: 21096a 1606711i bk10: 21182a 1604296i bk11: 21382a 1581897i bk12: 21118a 1558549i bk13: 21152a 1510597i bk14: 20688a 1415634i bk15: 20184a 1204563i 
dram_util_bins: 0 0 0 0 0 0 0 0 0 0
dram_eff_bins: 0 0 0 0 0 0 0 0 0 0
mrqq: max=16 avg=5.36519
Cache L2_bank_004:
MSHR contents

DRAM[4]: 16 bks, busW=4 BL=8 CL=12, tRRD=2 tCCD=6, tRCD=12 tRAS=28 tRP=12 tRC=40
n_cmd=1905257 n_nop=1371281 n_act=54435 n_pre=54419 n_req=248380 n_rd=334330 n_write=90792 bw_util=0.4463
n_activity=1529266 dram_eff=0.556
bk0: 20162a 1634964i bk1: 20268a 1632416i bk2: 20138a 1629442i bk3: 20270a 1632837i bk4: 21536a 1637204i bk5: 21280a 1628104i bk6: 21192a 1627832i bk7: 21326a 1626227i bk8: 21406a 1619037i bk9: 21096a 1608068i bk10: 21180a 1607241i bk11: 21396a 1585290i bk12: 21150a 1558021i bk13: 21146a 1513639i bk14: 20650a 1418409i bk15: 20134a 1207161i 
dram_util_bins: 0 0 0 0 0 0 0 0 0 0
dram_eff_bins: 0 0 0 0 0 0 0 0 0 0
mrqq: max=16 avg=5.36367
Cache L2_bank_000:	Size = 131072 B (64 Set x 16-way x 128 byte line)
		Access = 364331, Miss = 167241 (0.459), PendingHit = 76643 (0.21)
Cache L2_bank_001:	Size = 131072 B (64 Set x 16-way x 128 byte line)
		Access = 364292, Miss = 167219 (0.459), PendingHit = 76462 (0.21)
Cache L2_bank_002:	Size = 131072 B (64 Set x 16-way x 128 byte line)
		Access = 364172, Miss = 167189 (0.459), PendingHit = 76633 (0.21)
Cache L2_bank_003:	Size = 131072 B (64 Set x 16-way x 128 byte line)
		Access = 364612, Miss = 167177 (0.459), PendingHit = 76463 (0.21)
Cache L2_bank_004:	Size = 131072 B (64 Set x 16-way x 128 byte line)
		Access = 364431, Miss = 167165 (0.459), PendingHit = 76302 (0.209)
L2 Cache Total Miss Rate = 0.459

icnt_total_pkts_mem_to_simt=7348586
icnt_total_pkts_simt_to_mem=2341662

LD_mem_lat_dist  0 0 0 0 0 0 0 0 0 0 0 0 0 0 0 0 0 0 0 0 0 0 0 0 0 0 0
ST_mem_lat_dist  0 0 0 0 0 0 0 0 0 0 0 0 0 0 0 0 0 0 0 0 0 0 0 0 0 0 0
Traffic 0 Stat
%=================================
% Average latency = 167.035
% Accepted packets = 0 at node 0 (avg = 0.0577269)
lat(15) = 167.035;
thru(15,:) = [ 0 0 0 0 0 0 0 0 0 0 0 0 0 0 0.265459 0.265487 0.265487 0.2656 0.265684 0 0 0 0 ];
% latency change    = 0.927425
% throughput change = 1.41468
Traffic 1 Stat
%=================================
% Average latency = 2.47477
% Accepted packets = 0 at node 14 (avg = 0.0478885)
lat(16) = 2.47477;
thru(16,:) = [ 0.0775198 0.054179 0.0775198 0.054179 0.0775198 0.0775198 0.1049 0.054179 0.0775198 0.1049 0.0795396 0.1049 0.0795396 0.0775198 0 0 0 0 0 0 0 0 0 ];
% latency change    = 66.4953
% throughput change = 0.205443
----------------------------Interconnect-DETAILS---------------------------------=======Traffic[0]class0 ======
Traffic[0]class0Overall average latency = 116.861 (8 samples)
Traffic[0]class0Overall average accepted rate = 0.0436874 (8 samples)
Traffic[0]class0Overall min accepted rate = 0 (8 samples)
traffic_manager/latency_stat_0_freq = [ 0 757 1290 365 370 357 400 137 221 205 264 117 149 214 266 410 1670 1867 758 903 797 782 832 843 784 807 895 796 801 751 733 737 777 662 692 703 707 673 701 710 644 695 689 686 703 678 637 679 580 693 641 651 632 588 587 595 568 556 572 548 549 550 524 519 512 474 471 482 444 466 457 447 473 410 382 350 363 365 375 313 360 337 345 320 330 295 305 302 286 232 271 266 231 225 256 212 216 209 214 204 199 188 211 189 202 152 176 168 195 156 170 152 160 150 155 136 140 113 141 108 139 110 118 100 105 99 114 98 102 86 89 104 89 100 106 84 88 86 95 81 78 74 73 59 73 70 73 67 62 81 76 86 70 75 45 51 58 67 60 67 74 67 68 75 69 69 54 61 66 54 68 67 63 65 48 58 66 67 65 63 72 50 56 66 58 56 73 55 64 68 70 68 46 58 66 53 52 47 62 64 54 62 53 53 53 46 42 55 37 61 58 57 49 47 57 54 52 51 47 39 35 52 47 49 49 47 56 51 43 47 49 49 45 42 41 41 46 55 57 36 38 51 40 42 43 29 29 47 47 45 52 49 43 63 40 43 52 47 47 54 56 54 54 43 48 39 50 49 51 38 44 34 58 48 59 46 55 51 50 52 33 47 42 39 40 32 43 40 46 43 42 44 53 39 53 50 42 53 43 49 35 48 42 46 40 42 43 56 39 48 55 42 46 37 35 42 38 43 40 61 45 38 38 31 35 56 53 42 44 45 62 53 43 44 50 51 43 57 46 55 58 45 46 54 35 41 35 43 56 44 46 39 42 43 50 39 42 51 39 40 32 39 39 41 41 32 32 39 35 36 46 31 36 55 40 42 41 40 44 35 48 34 29 40 37 37 43 45 41 41 45 39 50 47 39 40 33 37 41 34 48 42 33 65 36 40 38 47 42 34 39 38 37 43 51 33 42 44 45 48 34 36 36 53 41 51 39 48 45 38 36 60 48 56 45 44 33 34 45 45 53 40 43 30 34 44 47 44 48 42 45 44 42 47 44 42 43 54 61 51 42 50 35 49 39 49 44 41 45 37 45 44 34 46 41 39 41 52 45 46 45 31 44 46 39 34 48 29 37 45 39 41 33 54 47 43 54 37 29 38 45 45 45 46 36 43 37 33 43 38 40 37 38 51 36 38 51 44 33 31 39 36 40 37 27 37 45 35 28 27 27 36 24 35 29 29 40 28 36 35 35 34 23 40 31 29 37 39 36 23 42 33 23 25 24 39 26 28 26 31 22 30 30 38 23 37 25 24 42 26 31 36 37 31 29 24 31 38 35 30 40 31 31 32 30 29 31 33 23 32 35 40 21 27 29 22 32 27 30 23 19 33 36 20 26 39 40 29 22 23 25 28 26 24 21 19 21 25 13 26 29 24 28 26 21 21 30 29 21 28 28 24 26 23 25 21 24 23 18 24 20 24 21 25 23 17 23 17 29 23 18 20 28 27 18 23 32 23 27 20 14 22 19 22 23 29 18 19 19 27 17 17 14 17 26 22 25 19 26 21 29 24 26 21 17 11 14 20 25 18 15 15 23 18 18 14 16 19 18 20 18 22 22 14 10 18 15 17 11 16 12 10 12 22 13 17 13 16 25 5 17 15 12 19 11 11 14 15 17 12 12 22 7 13 18 10 12 12 21 7 13 18 11 16 18 12 11 10 10 16 18 13 12 9 12 15 8 10 11 9 10 13 11 12 14 12 12 6 11 12 9 15 10 7 14 12 10 14 6 13 13 11 11 14 8 16 13 7 16 16 9 6 10 7 16 13 11 12 10 17 8 11 11 14 8 17 18 16 9 11 11 4 7 6 12 7 10 11 3 8 6 9 11 6 6 12 10 9 5 9 10 6 3 5 8 10 11 4 5 10 10 6 5 4 7 5 12 11 8 16 9 2 8 11 5 12 9 11 10 7 9 3 10 8 8 18 9 2 4 4 2 7 4 6 7 9 8 8 4 10 8 7 8 4 12 4 18 5 7 6 10 12 4 7 7 2 6 3 8 9 5 6 6 7 3 7 10 5 4 1 4 6 4 6 9 5 3 4 4 3 2 7 3 7 7 4 4 7 3 4 2 6 3 6 3 5 3 5 7 5 3 1 0 6 3 4 4 5 9 4 4 1 2 4 6 4 5 2 1 3 4 5 0 1 2 2 2 3 3 2 3 3 3 2 2 1 1 0 1 0 4 1 1 0 1 3 2 1 5 2 0 1 4 2 3 6 3 4 6 537 ];
Traffic[0]class1Average hops = 1 (1821838 samples)
traffic_manager/hop_stats_freq = [ 0 1821838 0 0 0 0 0 0 0 0 0 0 0 0 0 0 0 0 0 0 ];
=======Traffic[1]class0 ======
Traffic[1]class0Overall average latency = 7.28373 (8 samples)
Traffic[1]class0Overall average accepted rate = 0.0729906 (8 samples)
Traffic[1]class0Overall min accepted rate = 0 (8 samples)
traffic_manager/latency_stat_0_freq = [ 0 52940 4991 1612 1932 15818 2567 818 1296 606 455 197 123 97 94 64 61 41 38 23 17 18 12 6 5 2 1 1 1 1 1 0 0 0 0 0 0 0 0 0 0 0 0 0 0 0 0 0 0 0 0 0 0 0 0 0 0 0 0 0 0 0 0 0 0 0 0 0 0 0 0 0 0 0 0 0 0 0 0 0 0 0 0 0 0 0 0 0 0 0 0 0 0 0 0 0 0 0 0 0 0 0 0 0 0 0 0 0 0 0 0 0 0 0 0 0 0 0 0 0 0 0 0 0 0 0 0 0 0 0 0 0 0 0 0 0 0 0 0 0 0 0 0 0 0 0 0 0 0 0 0 0 0 0 0 0 0 0 0 0 0 0 0 0 0 0 0 0 0 0 0 0 0 0 0 0 0 0 0 0 0 0 0 0 0 0 0 0 0 0 0 0 0 0 0 0 0 0 0 0 0 0 0 0 0 0 0 0 0 0 0 0 0 0 0 0 0 0 0 0 0 0 0 0 0 0 0 0 0 0 0 0 0 0 0 0 0 0 0 0 0 0 0 0 0 0 0 0 0 0 0 0 0 0 0 0 0 0 0 0 0 0 0 0 0 0 0 0 0 0 0 0 0 0 0 0 0 0 0 0 0 0 0 0 0 0 0 0 0 0 0 0 0 0 0 0 0 0 0 0 0 0 0 0 0 0 0 0 0 0 0 0 0 0 0 0 0 0 0 0 0 0 0 0 0 0 0 0 0 0 0 0 0 0 0 0 0 0 0 0 0 0 0 0 0 0 0 0 0 0 0 0 0 0 0 0 0 0 0 0 0 0 0 0 0 0 0 0 0 0 0 0 0 0 0 0 0 0 0 0 0 0 0 0 0 0 0 0 0 0 0 0 0 0 0 0 0 0 0 0 0 0 0 0 0 0 0 0 0 0 0 0 0 0 0 0 0 0 0 0 0 0 0 0 0 0 0 0 0 0 0 0 0 0 0 0 0 0 0 0 0 0 0 0 0 0 0 0 0 0 0 0 0 0 0 0 0 0 0 0 0 0 0 0 0 0 0 0 0 0 0 0 0 0 0 0 0 0 0 0 0 0 0 0 0 0 0 0 0 0 0 0 0 0 0 0 0 0 0 0 0 0 0 0 0 0 0 0 0 0 0 0 0 0 0 0 0 0 0 0 0 0 0 0 0 0 0 0 0 0 0 0 0 0 0 0 0 0 0 0 0 0 0 0 0 0 0 0 0 0 0 0 0 0 0 0 0 0 0 0 0 0 0 0 0 0 0 0 0 0 0 0 0 0 0 0 0 0 0 0 0 0 0 0 0 0 0 0 0 0 0 0 0 0 0 0 0 0 0 0 0 0 0 0 0 0 0 0 0 0 0 0 0 0 0 0 0 0 0 0 0 0 0 0 0 0 0 0 0 0 0 0 0 0 0 0 0 0 0 0 0 0 0 0 0 0 0 0 0 0 0 0 0 0 0 0 0 0 0 0 0 0 0 0 0 0 0 0 0 0 0 0 0 0 0 0 0 0 0 0 0 0 0 0 0 0 0 0 0 0 0 0 0 0 0 0 0 0 0 0 0 0 0 0 0 0 0 0 0 0 0 0 0 0 0 0 0 0 0 0 0 0 0 0 0 0 0 0 0 0 0 0 0 0 0 0 0 0 0 0 0 0 0 0 0 0 0 0 0 0 0 0 0 0 0 0 0 0 0 0 0 0 0 0 0 0 0 0 0 0 0 0 0 0 0 0 0 0 0 0 0 0 0 0 0 0 0 0 0 0 0 0 0 0 0 0 0 0 0 0 0 0 0 0 0 0 0 0 0 0 0 0 0 0 0 0 0 0 0 0 0 0 0 0 0 0 0 0 0 0 0 0 0 0 0 0 0 0 0 0 0 0 0 0 0 0 0 0 0 0 0 0 0 0 0 0 0 0 0 0 0 0 0 0 0 0 0 0 0 0 0 0 0 0 0 0 0 0 0 0 0 0 0 0 0 0 0 0 0 0 0 0 0 0 0 0 0 0 0 0 0 0 0 0 0 0 0 0 0 0 0 0 0 0 0 0 0 0 0 0 0 0 0 0 0 0 0 0 0 0 0 0 0 0 0 0 0 0 0 0 0 0 0 0 0 0 0 0 0 0 0 0 0 0 0 0 0 0 0 0 0 0 0 0 0 0 0 0 0 0 0 0 0 0 0 0 0 0 0 0 0 0 0 0 0 0 0 0 0 0 0 0 0 0 0 0 0 0 0 0 ];
Traffic[1]class1Average hops = 1 (1821838 samples)
traffic_manager/hop_stats_freq = [ 0 1821838 0 0 0 0 0 0 0 0 0 0 0 0 0 0 0 0 0 0 ];
----------------------------END-of-Interconnect-DETAILS-------------------------

gpgpu_simulation_time = 0 days, 0 hrs, 18 min, 39 sec (1119 sec)
gpgpu_simulation_rate = 331289 (inst/sec)
gpgpu_simulation_rate = 1362 (cycle/sec)

