

        *** GPGPU-Sim Simulator Version 3.2.1  [build 15629] ***


               1=functional simulation only, 0=detailed performance simulator)
GPGPU-Sim: Configuration options:

-network_mode                           1 # Interconnection network mode
-inter_config_file   config_fermi_islip.icnt # Interconnection network config file
-gpgpu_ptx_use_cuobjdump                    1 # Use cuobjdump to extract ptx and sass from binaries
-gpgpu_experimental_lib_support                    0 # Try to extract code from cuda libraries [Broken because of unknown cudaGetExportTable]
-gpgpu_ptx_convert_to_ptxplus                    0 # Convert SASS (native ISA) to ptxplus and run ptxplus
-gpgpu_ptx_force_max_capability                   20 # Force maximum compute capability
-gpgpu_ptx_inst_debug_to_file                    0 # Dump executed instructions' debug information to file
-gpgpu_ptx_inst_debug_file       inst_debug.txt # Executed instructions' debug output file
-gpgpu_ptx_inst_debug_thread_uid                    1 # Thread UID for executed instructions' debug output
-gpgpu_simd_model                       1 # 1 = post-dominator
-gpgpu_shader_core_pipeline              1536:32 # shader core pipeline config, i.e., {<nthread>:<warpsize>}
-gpgpu_tex_cache:l1  4:128:24,L:R:m:N,F:128:4,128:2 # per-shader L1 texture cache  (READ-ONLY) config  {<nsets>:<bsize>:<assoc>,<rep>:<wr>:<alloc>:<wr_alloc>,<mshr>:<N>:<merge>,<mq>:<rf>}
-gpgpu_const_cache:l1 64:64:2,L:R:f:N,A:2:32,4 # per-shader L1 constant memory cache  (READ-ONLY) config  {<nsets>:<bsize>:<assoc>,<rep>:<wr>:<alloc>:<wr_alloc>,<mshr>:<N>:<merge>,<mq>} 
-gpgpu_cache:il1     4:128:4,L:R:f:N,A:2:32,4 # shader L1 instruction cache config  {<nsets>:<bsize>:<assoc>,<rep>:<wr>:<alloc>:<wr_alloc>,<mshr>:<N>:<merge>,<mq>} 
-gpgpu_cache:dl1     32:128:4,L:L:m:N,A:32:8,8 # per-shader L1 data cache config  {<nsets>:<bsize>:<assoc>,<rep>:<wr>:<alloc>:<wr_alloc>,<mshr>:<N>:<merge>,<mq> | none}
-gpgpu_perfect_mem                      0 # enable perfect memory mode (no cache miss)
-n_regfile_gating_group                    4 # group of lanes that should be read/written together)
-gpgpu_clock_gated_reg_file                    0 # enable clock gated reg file for power calculations
-gpgpu_clock_gated_lanes                    0 # enable clock gated lanes for power calculations
-gpgpu_shader_registers                32768 # Number of registers per shader core. Limits number of concurrent CTAs. (default 8192)
-gpgpu_shader_cta                       8 # Maximum number of concurrent CTAs in shader (default 8)
-gpgpu_n_clusters                      14 # number of processing clusters
-gpgpu_n_cores_per_cluster                    1 # number of simd cores per cluster
-gpgpu_n_cluster_ejection_buffer_size                    8 # number of packets in ejection buffer
-gpgpu_n_ldst_response_buffer_size                    2 # number of response packets in ld/st unit ejection buffer
-gpgpu_shmem_size                   16384 # Size of shared memory per shader core (default 16kB)
-gpgpu_shmem_num_banks                   32 # Number of banks in the shared memory in each shader core (default 16)
-gpgpu_shmem_limited_broadcast                    0 # Limit shared memory to do one broadcast per cycle (default on)
-gpgpu_shmem_warp_parts                    1 # Number of portions a warp is divided into for shared memory bank conflict check 
-gpgpu_warpdistro_shader                   -1 # Specify which shader core to collect the warp size distribution from
-gpgpu_warp_issue_shader                    0 # Specify which shader core to collect the warp issue distribution from
-gpgpu_local_mem_map                    1 # Mapping from local memory space address to simulated GPU physical address space (default = enabled)
-gpgpu_num_reg_banks                   16 # Number of register banks (default = 8)
-gpgpu_reg_bank_use_warp_id                    0 # Use warp ID in mapping registers to banks (default = off)
-gpgpu_operand_collector_num_units_sp                    6 # number of collector units (default = 4)
-gpgpu_operand_collector_num_units_sfu                    8 # number of collector units (default = 4)
-gpgpu_operand_collector_num_units_mem                    2 # number of collector units (default = 2)
-gpgpu_operand_collector_num_units_gen                    0 # number of collector units (default = 0)
-gpgpu_operand_collector_num_in_ports_sp                    2 # number of collector unit in ports (default = 1)
-gpgpu_operand_collector_num_in_ports_sfu                    1 # number of collector unit in ports (default = 1)
-gpgpu_operand_collector_num_in_ports_mem                    1 # number of collector unit in ports (default = 1)
-gpgpu_operand_collector_num_in_ports_gen                    0 # number of collector unit in ports (default = 0)
-gpgpu_operand_collector_num_out_ports_sp                    2 # number of collector unit in ports (default = 1)
-gpgpu_operand_collector_num_out_ports_sfu                    1 # number of collector unit in ports (default = 1)
-gpgpu_operand_collector_num_out_ports_mem                    1 # number of collector unit in ports (default = 1)
-gpgpu_operand_collector_num_out_ports_gen                    0 # number of collector unit in ports (default = 0)
-gpgpu_coalesce_arch                   13 # Coalescing arch (default = 13, anything else is off for now)
-gpgpu_num_sched_per_core                    2 # Number of warp schedulers per core
-gpgpu_max_insn_issue_per_warp                    1 # Max number of instructions that can be issued per warp in one cycle by scheduler
-gpgpu_simt_core_sim_order                    1 # Select the simulation order of cores in a cluster (0=Fix, 1=Round-Robin)
-gpgpu_pipeline_widths        2,1,1,2,1,1,2 # Pipeline widths ID_OC_SP,ID_OC_SFU,ID_OC_MEM,OC_EX_SP,OC_EX_SFU,OC_EX_MEM,EX_WB
-gpgpu_num_sp_units                     2 # Number of SP units (default=1)
-gpgpu_num_sfu_units                    1 # Number of SF units (default=1)
-gpgpu_num_mem_units                    1 # Number if ldst units (default=1) WARNING: not hooked up to anything
-gpgpu_scheduler                      lrr # Scheduler configuration: < lrr | gto | two_level_active > If two_level_active:<num_active_warps>:<inner_prioritization>:<outer_prioritization>For complete list of prioritization values see shader.h enum scheduler_prioritization_typeDefault: gto
-gpgpu_dram_scheduler                    1 # 0 = fifo, 1 = FR-FCFS (defaul)
-gpgpu_dram_partition_queues              8:8:8:8 # i2$:$2d:d2$:$2i
-l2_ideal                               0 # Use a ideal L2 cache that always hit
-gpgpu_cache:dl2     64:128:16,L:B:m:W,A:32:4,4 # unified banked L2 data cache config  {<nsets>:<bsize>:<assoc>,<rep>:<wr>:<alloc>:<wr_alloc>,<mshr>:<N>:<merge>,<mq>}
-gpgpu_cache:dl2_texture_only                    0 # L2 cache used for texture only
-gpgpu_n_mem                            5 # number of memory modules (e.g. memory controllers) in gpu
-gpgpu_n_mem_per_ctrlr                    2 # number of memory chips per memory controller
-gpgpu_memlatency_stat                   14 # track and display latency statistics 0x2 enables MC, 0x4 enables queue logs
-gpgpu_frfcfs_dram_sched_queue_size                   16 # 0 = unlimited (default); # entries per chip
-gpgpu_dram_return_queue_size                    0 # 0 = unlimited (default); # entries per chip
-gpgpu_dram_buswidth                    4 # default = 4 bytes (8 bytes per cycle at DDR)
-gpgpu_dram_burst_length                    8 # Burst length of each DRAM request (default = 4 data bus cycle)
-dram_data_command_freq_ratio                    4 # Frequency ratio between DRAM data bus and command bus (default = 2 times, i.e. DDR)
-gpgpu_dram_timing_opt nbk=16:CCD=2:RRD=6:RCD=12:RAS=28:RP=12:RC=40: CL=12:WL=4:CDLR=5:WR=12:nbkgrp=4:CCDL=3:RTPL=2 # DRAM timing parameters = {nbk:tCCD:tRRD:tRCD:tRAS:tRP:tRC:CL:WL:tCDLR:tWR:nbkgrp:tCCDL:tRTPL}
-rop_latency                          100 # ROP queue latency (default 85)
-dram_latency                          83 # DRAM latency (default 30)
-gpgpu_mem_addr_mapping dramid@8;00000000.00000000.00000000.00000000.0000RRRR.RRRRRRRR.BBBBCCCC.CCSSSSSS # mapping memory address to dram model {dramid@<start bit>;<memory address map>}
-gpgpu_mem_addr_test                    0 # run sweep test to check address mapping for aliased address
-gpgpu_mem_address_mask                    1 # 0 = old addressing mask, 1 = new addressing mask, 2 = new add. mask + flipped bank sel and chip sel bits
-gpuwattch_xml_file         gpuwattch.xml # GPUWattch XML file
-power_simulation_enabled                    1 # Turn on power simulator (1=On, 0=Off)
-power_per_cycle_dump                    0 # Dump detailed power output each cycle
-power_trace_enabled                    1 # produce a file for the power trace (1=On, 0=Off)
-power_trace_zlevel                     6 # Compression level of the power trace output log (0=no comp, 9=highest)
-steady_power_levels_enabled                    0 # produce a file for the steady power levels (1=On, 0=Off)
-steady_state_definition                  8:4 # allowed deviation:number of samples
-gpgpu_max_cycle                        0 # terminates gpu simulation early (0 = no limit)
-gpgpu_max_insn                         0 # terminates gpu simulation early (0 = no limit)
-gpgpu_max_cta                          0 # terminates gpu simulation early (0 = no limit)
-gpgpu_runtime_stat                   500 # display runtime statistics such as dram utilization {<freq>:<flag>}
-gpgpu_flush_l1_cache                    0 # Flush L1 cache at the end of each kernel call
-gpgpu_flush_l2_cache                    0 # Flush L2 cache at the end of each kernel call
-gpgpu_deadlock_detect                    1 # Stop the simulation at deadlock (1=on (default), 0=off)
-gpgpu_ptx_instruction_classification                    0 # if enabled will classify ptx instruction types per kernel (Max 255 kernels now)
-gpgpu_ptx_sim_mode                     0 # Select between Performance (default) or Functional simulation (1)
-gpgpu_clock_domains 500.0:1000.0:500.0:900.0 # Clock Domain Frequencies in MhZ {<Core Clock>:<ICNT Clock>:<L2 Clock>:<DRAM Clock>}
-gpgpu_max_concurrent_kernel                    8 # maximum kernels that can run concurrently on GPU
-gpgpu_cflog_interval                    0 # Interval between each snapshot in control flow logger
-visualizer_enabled                     0 # Turn on visualizer output (1=On, 0=Off)
-visualizer_outputfile                 NULL # Specifies the output log file for visualizer
-visualizer_zlevel                      6 # Compression level of the visualizer output log (0=no comp, 9=highest)
-trace_enabled                          0 # Turn on traces
-trace_components                    none # comma seperated list of traces to enable. Complete list found in trace_streams.tup. Default none
-trace_sampling_core                    0 # The core which is printed using CORE_DPRINTF. Default 0
-enable_ptx_file_line_stats                    1 # Turn on PTX source line statistic profiling. (1 = On)
-ptx_line_stats_filename gpgpu_inst_stats.txt # Output file for PTX source line statistics.
-save_embedded_ptx                      0 # saves ptx files embedded in binary as <n>.ptx
-keep                                   0 # keep intermediate files created by GPGPU-Sim when interfacing with external programs
-gpgpu_ptx_save_converted_ptxplus                    0 # Saved converted ptxplus to a file
-ptx_opcode_latency_int         4,13,4,5,145 # Opcode latencies for integers <ADD,MAX,MUL,MAD,DIV>Default 1,1,19,25,145
-ptx_opcode_latency_fp          4,13,4,5,39 # Opcode latencies for single precision floating points <ADD,MAX,MUL,MAD,DIV>Default 1,1,1,1,30
-ptx_opcode_latency_dp         8,19,8,8,330 # Opcode latencies for double precision floating points <ADD,MAX,MUL,MAD,DIV>Default 8,8,8,8,335
-ptx_opcode_initiation_int            1,2,2,1,8 # Opcode initiation intervals for integers <ADD,MAX,MUL,MAD,DIV>Default 1,1,4,4,32
-ptx_opcode_initiation_fp            1,2,1,1,4 # Opcode initiation intervals for single precision floating points <ADD,MAX,MUL,MAD,DIV>Default2a31a24d7c846bed328678fa2bb7def4  /tmp/tmp.SyX1HTYq26/cutcp__SIZE1_1
 1,1,1,1,5
-ptx_opcode_initiation_dp         8,16,8,8,130 # Opcode initiation intervals for double precision floating points <ADD,MAX,MUL,MAD,DIV>Default 8,8,8,8,130
DRAM Timing Options:
nbk                                    16 # number of banks
CCD                                     2 # column to column delay
RRD                                     6 # minimal delay between activation of rows in different banks
RCD                                    12 # row to column delay
RAS                                    28 # time needed to activate row
RP                                     12 # time needed to precharge (deactivate) row
RC                                     40 # row cycle time
CDLR                                    5 # switching from write to read (changes tWTR)
WR                                     12 # last data-in to row precharge
CL                                     12 # CAS latency
WL                                      4 # Write latency
nbkgrp                                  4 # number of bank groups
CCDL                                    3 # column to column delay between accesses to different bank groups
RTPL                                    2 # read to precharge delay between accesses to different bank groups
addr_dec_mask[CHIP]  = 0000000000000000 	high:64 low:0
addr_dec_mask[BK]    = 000000000000f000 	high:16 low:12
addr_dec_mask[ROW]   = 000000000fff0000 	high:28 low:16
addr_dec_mask[COL]   = 0000000000000fff 	high:12 low:0
addr_dec_mask[BURST] = 000000000000003f 	high:6 low:0
*** Initializing Memory Statistics ***
self exe links to: /tmp/tmp.SyX1HTYq26/cutcp__SIZE1_1
Running md5sum using "md5sum /tmp/tmp.SyX1HTYq26/cutcp__SIZE1_1 "
Running cuobjdump using "$CUDA_INSTALL_PATH/bin/cuobjdump -ptx -elf -sass /tmp/tmp.SyX1HTYq26/cutcp__SIZE1_1 > _cuobjdump_complete_output_kf2xdj"
Parsing file _cuobjdump_complete_output_kf2xdj
######### cuobjdump parser ########
## Adding new section PTX
Adding ptx filename: _cuobjdump_1.ptx
Adding arch: sm_13
Adding identifier: benchmarks/cutcp/cutcp.cu
## Adding new section ELF
Adding arch: sm_13
Adding identifier: benchmarks/cutcp/cutcp.cu
Done parsing!!!
Adding _cuobjdump_1.ptx with cubin handle 1
Running: cat _ptx_7cOini | sed 's/.version 1.5/.version 1.4/' | sed 's/, texmode_independent//' | sed 's/\(\.extern \.const\[1\] .b8 \w\+\)\[\]/\1\[1\]/' | sed 's/const\[.\]/const\[0\]/g' > _ptx2_aei4wh
GPGPU-Sim PTX registering constant NbrListLen (4 bytes) to name mapping
GPGPU-Sim PTX registering constant NbrList (15972 bytes) to name mapping
read 96603 atoms from file '/home/cnugteren/software/parboil-2.5/datasets/cutcp/large/input/watbox.sl100.pqr'
extent of domain is:
  minimum -49.998 -49.997 -49.996
  maximum 50 49.99 49.971
padding domain by 0.5 Angstroms
domain lengths are 100.998 by 100.987 by 100.967

Invoking CUDA kernel on 2 region planes...
  computing plane 0
kernel '_Z29cuda_cutoff_potential_latticeiiP6float4fffPfi' transfer to GPU hardware scheduler
kernel_name = _Z29cuda_cutoff_potential_latticeiiP6float4fffPfi 
kernel_launch_uid = 1 
gpu_sim_cycle = 18276379
gpu_sim_insn = 12113348856
gpu_ipc =     662.7871
gpu_tot_sim_cycle = 18276379
gpu_tot_sim_insn = 12113348856
gpu_tot_ipc =     662.7871
gpu_tot_issued_cta = 0
gpu_stall_dramfull = 12441
gpu_stall_icnt2sh    = 48170
gpu_total_sim_rate=490002
Cache L1D_000:	Size = 16384 B (32 Set x 4-way x 128 byte line)
		Access = 129980, Miss = 61313 (0.472), PendingHit = 144 (0.00111)
Cache L1D_001:	Size = 16384 B (32 Set x 4-way x 128 byte line)
		Access = 128640, Miss = 53468 (0.416), PendingHit = 2110 (0.0164)
Cache L1D_002:	Size = 16384 B (32 Set x 4-way x 128 byte line)
		Access = 129310, Miss = 59822 (0.463), PendingHit = 165 (0.00128)
Cache L1D_003:	Size = 16384 B (32 Set x 4-way x 128 byte line)
		Access = 129310, Miss = 57489 (0.445), PendingHit = 621 (0.0048)
Cache L1D_004:	Size = 16384 B (32 Set x 4-way x 128 byte line)
		Access = 129310, Miss = 60380 (0.467), PendingHit = 90 (0.000696)
Cache L1D_005:	Size = 16384 B (32 Set x 4-way x 128 byte line)
		Access = 128640, Miss = 56603 (0.44), PendingHit = 621 (0.00483)
Cache L1D_006:	Size = 16384 B (32 Set x 4-way x 128 byte line)
		Access = 130650, Miss = 56881 (0.435), PendingHit = 931 (0.00713)
Cache L1D_007:	Size = 16384 B (32 Set x 4-way x 128 byte line)
		Access = 129980, Miss = 59749 (0.46), PendingHit = 102 (0.000785)
Cache L1D_008:	Size = 16384 B (32 Set x 4-way x 128 byte line)
		Access = 128640, Miss = 60106 (0.467), PendingHit = 665 (0.00517)
Cache L1D_009:	Size = 16384 B (32 Set x 4-way x 128 byte line)
		Access = 129980, Miss = 62077 (0.478), PendingHit = 211 (0.00162)
Cache L1D_010:	Size = 16384 B (32 Set x 4-way x 128 byte line)
		Access = 129980, Miss = 59758 (0.46), PendingHit = 564 (0.00434)
Cache L1D_011:	Size = 16384 B (32 Set x 4-way x 128 byte line)
		Access = 128640, Miss = 60195 (0.468), PendingHit = 148 (0.00115)
Cache L1D_012:	Size = 16384 B (32 Set x 4-way x 128 byte line)
		Access = 129310, Miss = 57711 (0.446), PendingHit = 879 (0.0068)
Cache L1D_013:	Size = 16384 B (32 Set x 4-way x 128 byte line)
		Access = 129310, Miss = 58298 (0.451), PendingHit = 809 (0.00626)
total_dl1_misses=823850
total_dl1_accesses=1811680
total_dl1_miss_rate= 0.454744
Shader 0 dynamic_warp_id issue ditsribution:
dynamic_warp_id:
0, 1, 2, 3, 4, 5, 6, 7, 8, 9, 10, 11, 12, 13, 14, 15, 16, 17, 18, 19, 20, 21, 22, 23, 24, 25, 26, 27, 28, 29, 30, 31, 32, 33, 34, 35, 36, 37, 38, 39, 40, 41, 42, 43, 44, 45, 46, 47, 48, 49, 50, 51, 52, 53, 54, 55, 56, 57, 58, 59, 60, 61, 62, 63, 64, 65, 66, 67, 68, 69, 70, 71, 72, 73, 74, 75, 76, 77, 78, 79, 80, 81, 82, 83, 84, 85, 86, 87, 88, 89, 90, 91, 92, 93, 94, 95, 96, 97, 98, 99, 100, 101, 102, 103, 104, 105, 106, 107, 108, 109, 110, 111, 112, 113, 114, 115, 116, 117, 118, 119, 120, 121, 122, 123, 124, 125, 126, 127, 128, 129, 130, 131, 132, 133, 134, 135, 136, 137, 138, 139, 140, 141, 142, 143, 144, 145, 146, 147, 148, 149, 150, 151, 152, 153, 154, 155, 156, 157, 158, 159, 160, 161, 162, 163, 164, 165, 166, 167, 168, 169, 170, 171, 172, 173, 174, 175, 176, 177, 178, 179, 180, 181, 182, 183, 184, 185, 186, 187, 188, 189, 190, 191, 192, 193, 194, 195, 196, 197, 198, 199, 200, 201, 202, 203, 204, 205, 206, 207, 208, 209, 210, 211, 212, 213, 214, 215, 216, 217, 218, 219, 220, 221, 222, 223, 224, 225, 226, 227, 228, 229, 230, 231, 232, 233, 234, 235, 236, 237, 238, 239, 240, 241, 242, 243, 244, 245, 246, 247, 248, 249, 250, 251, 252, 253, 254, 255, 256, 257, 258, 259, 260, 261, 262, 263, 264, 265, 266, 267, 268, 269, 270, 271, 272, 273, 274, 275, 276, 277, 278, 279, 280, 281, 282, 283, 284, 285, 286, 287, 288, 289, 290, 291, 292, 293, 294, 295, 296, 297, 298, 299, 300, 301, 302, 303, 304, 305, 306, 307, 308, 309, 310, 311, 312, 313, 314, 315, 316, 317, 318, 319, 320, 321, 322, 323, 324, 325, 326, 327, 328, 329, 330, 331, 332, 333, 334, 335, 336, 337, 338, 339, 340, 341, 342, 343, 344, 345, 346, 347, 348, 349, 350, 351, 352, 353, 354, 355, 356, 357, 358, 359, 360, 361, 362, 363, 364, 365, 366, 367, 368, 369, 370, 371, 372, 373, 374, 375, 376, 377, 378, 379, 380, 381, 382, 383, 384, 385, 386, 387, 388, 389, 390, 391, 392, 393, 394, 395, 396, 397, 398, 399, 400, 401, 402, 403, 404, 405, 406, 407, 408, 409, 410, 411, 412, 413, 414, 415, 416, 417, 418, 419, 420, 421, 422, 423, 424, 425, 426, 427, 428, 429, 430, 431, 432, 433, 434, 435, 436, 437, 438, 439, 440, 441, 442, 443, 444, 445, 446, 447, 448, 449, 450, 451, 452, 453, 454, 455, 456, 457, 458, 459, 460, 461, 462, 463, 464, 465, 466, 467, 468, 469, 470, 471, 472, 473, 474, 475, 476, 477, 478, 479, 480, 481, 482, 483, 484, 485, 486, 487, 488, 489, 490, 491, 492, 493, 494, 495, 496, 497, 498, 499, 500, 501, 502, 503, 504, 505, 506, 507, 508, 509, 510, 511, 512, 513, 514, 515, 516, 517, 518, 519, 520, 521, 522, 523, 524, 525, 526, 527, 528, 529, 530, 531, 532, 533, 534, 535, 536, 537, 538, 539, 540, 541, 542, 543, 544, 545, 546, 547, 548, 549, 550, 551, 552, 553, 554, 555, 556, 557, 558, 559, 560, 561, 562, 563, 564, 565, 566, 567, 568, 569, 570, 571, 572, 573, 574, 575, 576, 577, 578, 579, 580, 581, 582, 583, 584, 585, 586, 587, 588, 589, 590, 591, 592, 593, 594, 595, 596, 597, 598, 599, 600, 601, 602, 603, 604, 605, 606, 607, 608, 609, 610, 611, 612, 613, 614, 615, 616, 617, 618, 619, 620, 621, 622, 623, 624, 625, 626, 627, 628, 629, 630, 631, 632, 633, 634, 635, 636, 637, 638, 639, 640, 641, 642, 643, 644, 645, 646, 647, 648, 649, 650, 651, 652, 653, 654, 655, 656, 657, 658, 659, 660, 661, 662, 663, 664, 665, 666, 667, 668, 669, 670, 671, 672, 673, 674, 675, 676, 677, 678, 679, 680, 681, 682, 683, 684, 685, 686, 687, 688, 689, 690, 691, 692, 693, 694, 695, 696, 697, 698, 699, 700, 701, 702, 703, 704, 705, 706, 707, 708, 709, 710, 711, 712, 713, 714, 715, 716, 717, 718, 719, 720, 721, 722, 723, 724, 725, 726, 727, 728, 729, 730, 731, 732, 733, 734, 735, 736, 737, 738, 739, 740, 741, 742, 743, 744, 745, 746, 747, 748, 749, 750, 751, 752, 753, 754, 755, 756, 757, 758, 759, 760, 761, 762, 763, 764, 765, 766, 767, 768, 769, 770, 771, 772, 773, 774, 775, 
distro:
26494, 27007, 26647, 27232, 27377, 27926, 27521, 28133, 26045, 26432, 26108, 26594, 26588, 27182, 26687, 27281, 27482, 28049, 27599, 28193, 27349, 27997, 27475, 28069, 15458, 15674, 15512, 15755, 31284, 31653, 31500, 31833, 31901, 32243, 32072, 32423, 32558, 32990, 32711, 33170, 31662, 32058, 31833, 32193, 32532, 32982, 32694, 33090, 32303, 32762, 32456, 32879, 21829, 22153, 21937, 22243, 23404, 23584, 23530, 23719, 27754, 28006, 27907, 28105, 37174, 37480, 37426, 37777, 37298, 37595, 37442, 37955, 37754, 38141, 37880, 38375, 37518, 37842, 37725, 38040, 36031, 36265, 36274, 36499, 32717, 32924, 32879, 33158, 37585, 37531, 37738, 37729, 42257, 42239, 42464, 42437, 42179, 42260, 42458, 42503, 42178, 42232, 42358, 42394, 41531, 41540, 41756, 41720, 42845, 42809, 43097, 43079, 33107, 33089, 33251, 33341, 26336, 26291, 26462, 26426, 37299, 37281, 37542, 37533, 44404, 44395, 44674, 44647, 42709, 42772, 42907, 42970, 44342, 44351, 44558, 44675, 42260, 42404, 42512, 42656, 41698, 41707, 41932, 41959, 33588, 33534, 33759, 33732, 42782, 42863, 43106, 43133, 43019, 43073, 43325, 43298, 43260, 43278, 43458, 43557, 44520, 44709, 44799, 44880, 43858, 43903, 44092, 44164, 43279, 43234, 43540, 43540, 26446, 26518, 26608, 26644, 26680, 26770, 26833, 26869, 43364, 43373, 43643, 43742, 43279, 43216, 43432, 43549, 44800, 44719, 44989, 45016, 43142, 43394, 43439, 43637, 41858, 41822, 42137, 42128, 42415, 42460, 42595, 42658, 22830, 22893, 22956, 23028, 42127, 42280, 42379, 42514, 44248, 44239, 44473, 44545, 44345, 44336, 44615, 44561, 44140, 44203, 44437, 44446, 43212, 43347, 43464, 43536, 42941, 42905, 43175, 43130, 22664, 22718, 22790, 22853, 31665, 31692, 31926, 31863, 41823, 41814, 42003, 42084, 43907, 43871, 44123, 44150, 44183, 44147, 44471, 44417, 43992, 43839, 44253, 44073, 42854, 42755, 43097, 43007, 38081, 38045, 38279, 38261, 27892, 27793, 27982, 27964, 32682, 32664, 32835, 32808, 44060, 43916, 44330, 44204, 42061, 42088, 42349, 42367, 42436, 42445, 42661, 42697, 42635, 42644, 42878, 42950, 43785, 43884, 44019, 44118, 38845, 38827, 39133, 39061, 32352, 32343, 32478, 32523, 42788, 42779, 43031, 43067, 44022, 44004, 44346, 44301, 44307, 44226, 44550, 44487, 42425, 42470, 42776, 42686, 42882, 42819, 43089, 42999, 39206, 39143, 39386, 39368, 28195, 28339, 28339, 28492, 38363, 38381, 38588, 38633, 42679, 42580, 42940, 42859, 42914, 42941, 43229, 43193, 42215, 42143, 42449, 42359, 42859, 42877, 43111, 43075, 42543, 42579, 42849, 42858, 33591, 33564, 33789, 33825, 32983, 32965, 33127, 33172, 42971, 43043, 43340, 43196, 41957, 41912, 42128, 42083, 41805, 41634, 42039, 41886, 43070, 42908, 43322, 43169, 43222, 43051, 43402, 43231, 39717, 39753, 39942, 40014, 22757, 22748, 22856, 22838, 41883, 41712, 42144, 41991, 43827, 43782, 44043, 44007, 43603, 43612, 43864, 43846, 42574, 42529, 42826, 42763, 42412, 42421, 42673, 42646, 43699, 43681, 44014, 43933, 27824, 27851, 27986, 28013, 38306, 38396, 38540, 38585, 43587, 43560, 43875, 43785, 42785, 42839, 43010, 43127, 42742, 42805, 43030, 43021, 43399, 43354, 43633, 43642, 43530, 43557, 43782, 43782, 33984, 33885, 34155, 34029, 22925, 22916, 22952, 22988, 38799, 38898, 38970, 38988, 42422, 42278, 42638, 42611, 41835, 41790, 42204, 42096, 40790, 40988, 41042, 41240, 42862, 42907, 43105, 43177, 44302, 44482, 44500, 44680, 33519, 33573, 33672, 33744, 37789, 37735, 38023, 37978, 43588, 43741, 43903, 43975, 43309, 43309, 43525, 43534, 42171, 42072, 42369, 42243, 42607, 42616, 42787, 42832, 43653, 43662, 43923, 43896, 32872, 32881, 33133, 33016, 22427, 22382, 22553, 22490, 41873, 41873, 42152, 42125, 42164, 42254, 42578, 42578, 41811, 41847, 42063, 42117, 42472, 42490, 42724, 42697, 43220, 43211, 43427, 43526, 44237, 44192, 44489, 44381, 28480, 28534, 28660, 28660, 32802, 32910, 32946, 33072, 38218, 38119, 38326, 38317, 41844, 41916, 42078, 42096, 42538, 42538, 42718, 42727, 42306, 42441, 42486, 42702, 42094, 42049, 42364, 42292, 39179, 39179, 39422, 39413, 33962, 33836, 34142, 33962, 42636, 42600, 42915, 42825, 43275, 43383, 43581, 43590, 41982, 42135, 42252, 42306, 43951, 43942, 44131, 44194, 42627, 42726, 42870, 42924, 41908, 41980, 42214, 42160, 22306, 22324, 22477, 22414, 42405, 42378, 42612, 42648, 42855, 42873, 43044, 43116, 44012, 43841, 44174, 44147, 43029, 43011, 43200, 43299, 44541, 44550, 44739, 44757, 44655, 44610, 44925, 44862, 28006, 27943, 28168, 28159, 22865, 22883, 23027, 22982, 37504, 37567, 37711, 37774, 44224, 44404, 44431, 44638, 43385, 43385, 43682, 43583, 43054, 43063, 43261, 43270, 43805, 43922, 44102, 44219, 43883, 43865, 44189, 44063, 33175, 33301, 33355, 33526, 37650, 37515, 37920, 37749, 39239, 39194, 39518, 39392, 39738, 39594, 40026, 39783, 40867, 40633, 41074, 40894, 40889, 40601, 41186, 40835, 38649, 38424, 38865, 38622, 25882, 25765, 26026, 25909, 22202, 21959, 22328, 22130, 33486, 33180, 33783, 33387, 35381, 35003, 35597, 35129, 34287, 33882, 34575, 34035, 34146, 33768, 34362, 33948, 33600, 33294, 33789, 33474, 34041, 33672, 34176, 33789, 18735, 18627, 18834, 18726, 29005, 28501, 29176, 28681, 28255, 27976, 28516, 28129, 29100, 28605, 29217, 28704, 29134, 28666, 29314, 28801, 29530, 28999, 29710, 29170, 30036, 29451, 30162, 29586, 16382, 16067, 16436, 16130, 16634, 16382, 16724, 16418, 21453, 21039, 21543, 21147, 23226, 22749, 23343, 22866, 23332, 22945, 23431, 23062, 23522, 23072, 23666, 23198, 23316, 22893, 23415, 23010, 23432, 22910, 23567, 23000, 19114, 18718, 19186, 18808, 
gpgpu_n_tot_thrd_icount = 12911309440
gpgpu_n_tot_w_icount = 403478420
gpgpu_n_icache_hits = 219780655
gpgpu_n_icache_misses = 2039
gpgpu_n_l1dcache_read_hits = 979770
gpgpu_n_l1dcache_read_misses = 831910
gpgpu_n_l1dcache_write_accesses = 10816
gpgpu_n_l1dcache_wirte_misses = 10816
gpgpu_n_tcache_hits = 0
gpgpu_n_tcache_misses = 0
gpgpu_n_ccache_hits = 18205996
gpgpu_n_ccache_misses = 3816
gpgpu_n_stall_shd_mem = 2090285
gpgpu_n_mem_read_local = 0
gpgpu_n_mem_write_local = 0
gpgpu_n_mem_read_global = 823850
gpgpu_n_mem_write_global = 10816
gpgpu_n_mem_texture = 0
gpgpu_n_mem_const = 924
gpgpu_n_load_insn  = 57973760
gpgpu_n_store_insn = 692224
gpgpu_n_shmem_insn = 1435609022
gpgpu_n_tex_insn = 0
gpgpu_n_const_mem_insn = 87652864
gpgpu_n_param_mem_insn = 987034558
gpgpu_n_shmem_bkconflict = 0
gpgpu_n_cache_bkconflict = 0
gpgpu_n_intrawarp_mshr_merge = 0
gpgpu_n_cmem_portconflict = 283920
gpgpu_stall_shd_mem[c_mem][bk_conf] = 283920
gpgpu_stall_shd_mem[c_mem][mshr_rc] = 0
gpgpu_stall_shd_mem[c_mem][icnt_rc] = 0
gpgpu_stall_shd_mem[t_mem][mshr_rc] = 0
gpgpu_stall_shd_mem[t_mem][icnt_rc] = 0
gpgpu_stall_shd_mem[s_mem][bk_conf] = 903136
gpgpu_stall_shd_mem[gl_mem][bk_conf] = 0
gpgpu_stall_shd_mem[gl_mem][coal_stall] = 903229
gpgpu_stall_shd_mem[g_mem_ld][mshr_rc] = 0
gpgpu_stall_shd_mem[g_mem_ld][icnt_rc] = 0
gpgpu_stall_shd_mem[g_mem_ld][wb_icnt_rc] = 0
gpgpu_stall_shd_mem[g_mem_ld][wb_rsrv_fail] = 0
gpgpu_stall_shd_mem[g_mem_st][mshr_rc] = 0
gpgpu_stall_shd_mem[g_mem_st][icnt_rc] = 0
gpgpu_stall_shd_mem[g_mem_st][wb_icnt_rc] = 0
gpgpu_stall_shd_mem[g_mem_st][wb_rsrv_fail] = 0
gpgpu_stall_shd_mem[l_mem_ld][mshr_rc] = 0
gpgpu_stall_shd_mem[l_mem_ld][icnt_rc] = 0
gpgpu_stall_shd_mem[l_mem_ld][wb_icnt_rc] = 0
gpgpu_stall_shd_mem[l_mem_ld][wb_rsrv_fail] = 0
gpgpu_stall_shd_mem[l_mem_st][mshr_rc] = 0
gpgpu_stall_shd_mem[l_mem_st][icnt_rc] = 0
gpgpu_stall_shd_mem[l_mem_ld][wb_icnt_rc] = 0
gpgpu_stall_shd_mem[l_mem_ld][wb_rsrv_fail] = 0
gpu_reg_bank_conflict_stalls = 0
Warp Occupancy Distribution:
Stall:12231193	W0_Idle:125566	W0_Scoreboard:95204265	W1:1163250	W2:788031	W3:874305	W4:843480	W5:542115	W6:810153	W7:445527	W8:846018	W9:470268	W10:581112	W11:454743	W12:696015	W13:440748	W14:651438	W15:440217	W16:822593	W17:401139	W18:575964	W19:399249	W20:641556	W21:428319	W22:622890	W23:408276	W24:700578	W25:409419	W26:576828	W27:369378	W28:749367	W29:589293	W30:588303	W31:1062855	W32:384084993
maxmrqlatency = 47 
maxdqlatency = 0 
maxmflatency = 390 
averagemflatency = 110 
max_icnt2mem_latency = 176 
max_icnt2sh_latency = 18276378 
mrq_lat_table:15699 	3987 	2700 	5161 	1284 	9 	0 	0 	0 	0 	0 	0 	0 	0 	0 	0 	0 	0 	0 	0 	0 	0 	0 	0 	0 	0 	0 	0 	0 	0 	0 	0 	
dq_lat_table:0 	0 	0 	0 	0 	0 	0 	0 	0 	0 	0 	0 	0 	0 	0 	0 	0 	0 	0 	0 	0 	0 	0 	0 	0 	0 	0 	0 	0 	0 	0 	0 	
mf_lat_table:0 	0 	0 	0 	0 	0 	813021 	21801 	768 	0 	0 	0 	0 	0 	0 	0 	0 	0 	0 	0 	0 	0 	0 	0 	0 	0 	0 	0 	0 	0 	0 	0 	
icnt2mem_lat_table:136 	822788 	11802 	200 	184 	286 	325 	51 	0 	0 	0 	0 	0 	0 	0 	0 	0 	0 	0 	0 	0 	0 	0 	0 	
icnt2sh_lat_table:0 	399006 	418320 	7443 	5 	0 	0 	0 	0 	0 	0 	0 	0 	0 	0 	0 	0 	168 	168 	352 	660 	1180 	2312 	4744 	
mf_lat_pw_table:1232 	0 	0 	0 	0 	0 	32360 	974 	1 	0 	0 	0 	0 	0 	0 	0 	0 	0 	0 	0 	0 	0 	0 	0 	0 	0 	0 	0 	0 	0 	0 	0 	
maximum concurrent accesses to same row:
dram[0]:        64        64        64        64        64        64        64        64        64        64        64        64        64        64        64        64 
dram[1]:        64        64        64        64        64        64        64        64        64        64        64        64        64        64        64        64 
dram[2]:        64        64        64        64        64        64        64        64        64        64        64        64        64        64        64        64 
dram[3]:        64        64        64        64        64        64        64        64        64        64        64        64        64        64        64        64 
dram[4]:        64        64        64        64        64        64        64        64        64        64        64        64        64        64        64        64 
maximum service time to same row:
dram[0]:   4581113   4569274   4702427   4566817   4566530   4794952   4691742   4437361   4617855   4650039   4527805   4518950   4640393   4580785   4446015   4564071 
dram[1]:   4581118   4567399   4702425   4566817   4566530   4794950   4691738   4437366   4617849   4650041   4527400   4518838   4640395   4580781   4448404   4564065 
dram[2]:   4581988   4570625   4693279   4569540   4585082   4800444   4690033   4433269   4652312   4674028   4501529   4514204   4646430   4574775   4448398   4570661 
dram[3]:   4575400   4569217   4693280   4561520   4585094   4800437   4699806   4433266   4652316   4674025   4449487   4540957   4646424   4574785   4452457   4570660 
dram[4]:   4565317   4577263   4694222   4553625   4620013   4796431   4707157   4398857   4653584   4670425   3895604   4550843   4646066   4575422   4447066   4584834 
average row accesses per activate:
dram[0]:  8.441860  7.652174  7.183673  9.777778 35.555557 29.090910 17.777779 18.105263 13.538462  9.894737  9.244445  9.904762 10.400000 11.870968 16.000000  8.000000 
dram[1]:  9.050000  8.000000  7.489362  8.186047 35.555557 29.090910 22.857143 18.105263 16.000000  8.545455  9.043478 10.146341  9.244445 11.030303 14.666667  7.822222 
dram[2]:  6.830189  8.186047  8.380953  8.000000 35.555557 29.090910 20.000000 20.352942 13.538462  9.894737  8.320000  9.454545 10.666667  9.282051 16.000000  7.183673 
dram[3]:  8.804878  7.652174  8.000000  8.585366 35.555557 24.615385 22.857143 23.066668 12.571428 10.000000  8.489796  9.904762 10.947369 11.677420 16.000000  7.040000 
dram[4]:  7.500000  8.186047  6.518518  8.750000 29.090910 29.090910 26.666666 20.352942 12.137931  9.268292  8.666667  9.454545  9.244445 10.400000 16.000000  8.186047 
average row locality = 28840/2652 = 10.874811
number of total memory accesses made:
dram[0]:         0         0         0         0         0         0         0         0         0         0         0         0         0         0         0         0 
dram[1]:         0         0         0         0         0         0         0         0         0         0         0         0         0         0         0         0 
dram[2]:         0         0         0         0         0         0         0         0         0         0         0         0         0         0         0         0 
dram[3]:         0         0         0         0         0         0         0         0         0         0         0         0         0         0         0         0 
dram[4]:         0         0         0         0         0         0         0         0         0         0         0         0         0         0         0         0 
total accesses: 0
min_bank_accesses = 0!
min_chip_accesses = 0!
number of total read accesses:
dram[0]:       235       224       224       224       192       192       192       216       224       236       256       256       256       232       224       224 
dram[1]:       234       224       224       224       192       192       192       216       224       236       256       256       256       230       224       224 
dram[2]:       234       224       224       224       192       192       192       218       224       236       256       256       256       228       224       224 
dram[3]:       233       224       224       224       192       192       192       218       224       238       256       256       256       228       224       224 
dram[4]:       232       224       224       222       192       192       192       218       224       238       256       256       256       230       224       224 
total reads: 18024
bank skew: 256/192 = 1.33
chip skew: 3607/3604 = 1.00
number of total write accesses:
dram[0]:       128       128       128       128       128       128       128       128       128       140       160       160       160       136       128       128 
dram[1]:       128       128       128       128       128       128       128       128       128       140       160       160       160       134       128       128 
dram[2]:       128       128       128       128       128       128       128       128       128       140       160       160       160       134       128       128 
dram[3]:       128       128       128       128       128       128       128       128       128       142       160       160       160       134       128       128 
dram[4]:       128       128       128       128       128       128       128       128       128       142       160       160       160       134       128       128 
total reads: 10816
bank skew: 160/128 = 1.25
chip skew: 2164/2162 = 1.00
average mf latency per bank:
dram[0]:       3180      3563      4091      2547      2311      3233      2615      2506      4132      3630      2725      3463      3259      2138      3535      4115
dram[1]:       3187      3577      4079      2532      2321      3238      2602      2505      4155      3615      2731      3488      3238      2139      3552      4113
dram[2]:       3199      3561      4089      2555      2317      3232      2624      2469      4131      3641      2730      3473      3275      2155      3505      4107
dram[3]:       3215      3540      4095      2587      2299      3223      2638      2443      4113      3619      2738      3468      3298      2168      3485      4115
dram[4]:       3219      3560      4091      2584      2308      3225      2621      2458      4107      3602      2739      3473      3289      2157      3478      4112
maximum mf latency per bank:
dram[0]:        282       222       238       222       323       220       226       290       349       221       292       251       223       296       382       220
dram[1]:        277       221       225       223       297       230       222       326       302       221       289       302       233       281       308       224
dram[2]:        232       223       226       220       325       221       222       390       237       222       295       318       222       235       327       227
dram[3]:        272       222       224       220       380       306       222       356       263       223       253       292       229       334       361       223
dram[4]:        234       220       223       223       374       230       223       301       249       227       347       298       231       300       284       221

Number of Memory Banks Accessed per Memory Operation per Warp (from 0):
0	0	0	0	0	0	0	0	0	0	0	0	0	0	0	0	0	0	0	0	0	0	0	0	0	0	0	0	0	0	0	0	0	0	0	0	0	0	0	0	0	0	0	0	0	0	0	0	0	0	0	0	0	0	0	0	0	0	0	0	0	0	0	0	0	0	0	0	0	0	0	0	0	0	0	0	0	0	0	0	
Average # of Memory Banks Accessed per Memory Operation per Warp=-nan

position of mrq chosen
0	0	0	0	0	0	0	0	0	0	0	0	0	0	0	0	

average position of mrq chosen = -nan
gpgpu_l2_write_miss = 0
gpgpu_l2_write_access = 0
gpgpu_l2_read_miss = 0
gpgpu_l2_read_access = 0
Cache L2_bank_000:
MSHR contents
MSHR: tag=0x80151580, atomic=0 1 entries : 0x91291d0 :  mf: uid=239825910, sid10:w03, part=0, addr=0x80151580, load , size=128, unknown  status = IN_PARTITION_DRAM (18276378), 

DRAM[0]: 16 bks, busW=4 BL=8 CL=12, tRRD=2 tCCD=6, tRCD=12 tRAS=28 tRP=12 tRC=40
n_cmd=32897481 n_nop=32884917 n_act=520 n_pre=504 n_req=5771 n_rd=7212 n_write=4328 bw_util=0.0007016
n_activity=100122 dram_eff=0.2305
bk0: 470a 32894628i bk1: 448a 32894455i bk2: 448a 32894484i bk3: 448a 32894517i bk4: 384a 32894148i bk5: 384a 32894247i bk6: 384a 32894154i bk7: 432a 32894217i bk8: 448a 32893916i bk9: 472a 32894073i bk10: 512a 32894089i bk11: 512a 32894589i bk12: 512a 32893221i bk13: 462a 32893092i bk14: 448a 32892860i bk15: 448a 32880995i 
dram_util_bins: 0 0 0 0 0 0 0 0 0 0
dram_eff_bins: 0 0 0 0 0 0 0 0 0 0
mrqq: max=6 avg=0.00114249
Cache L2_bank_001:
MSHR contents

DRAM[1]: 16 bks, busW=4 BL=8 CL=12, tRRD=2 tCCD=6, tRCD=12 tRAS=28 tRP=12 tRC=40
n_cmd=32897481 n_nop=32884909 n_act=528 n_pre=512 n_req=5766 n_rd=7208 n_write=4324 bw_util=0.0007011
n_activity=100210 dram_eff=0.2302
bk0: 468a 32894681i bk1: 448a 32894687i bk2: 448a 32894651i bk3: 448a 32894389i bk4: 384a 32894129i bk5: 384a 32894287i bk6: 384a 32894522i bk7: 432a 32894301i bk8: 448a 32893814i bk9: 472a 32893834i bk10: 512a 32894180i bk11: 512a 32894792i bk12: 512a 32893118i bk13: 460a 32892912i bk14: 448a 32892452i bk15: 448a 32880795i 
dram_util_bins: 0 0 0 0 0 0 0 0 0 0
dram_eff_bins: 0 0 0 0 0 0 0 0 0 0
mrqq: max=5 avg=0.00116036
Cache L2_bank_002:
MSHR contents

DRAM[2]: 16 bks, busW=4 BL=8 CL=12, tRRD=2 tCCD=6, tRCD=12 tRAS=28 tRP=12 tRC=40
n_cmd=32897481 n_nop=32884879 n_act=543 n_pre=527 n_req=5766 n_rd=7208 n_write=4324 bw_util=0.0007011
n_activity=100817 dram_eff=0.2288
bk0: 468a 32894667i bk1: 448a 32894498i bk2: 448a 32894568i bk3: 448a 32894537i bk4: 384a 32894380i bk5: 384a 32894405i bk6: 384a 32894399i bk7: 436a 32894420i bk8: 448a 32893587i bk9: 472a 32893831i bk10: 512a 32893843i bk11: 512a 32894780i bk12: 512a 32893046i bk13: 456a 32893104i bk14: 448a 32892664i bk15: 448a 32880528i 
dram_util_bins: 0 0 0 0 0 0 0 0 0 0
dram_eff_bins: 0 0 0 0 0 0 0 0 0 0
mrqq: max=5 avg=0.00111662
Cache L2_bank_003:
MSHR contents

DRAM[3]: 16 bks, busW=4 BL=8 CL=12, tRRD=2 tCCD=6, tRCD=12 tRAS=28 tRP=12 tRC=40
n_cmd=32897481 n_nop=32884915 n_act=522 n_pre=506 n_req=5769 n_rd=7210 n_write=4328 bw_util=0.0007015
n_activity=100221 dram_eff=0.2303
bk0: 466a 32894552i bk1: 448a 32894497i bk2: 448a 32894445i bk3: 448a 32894462i bk4: 384a 32894417i bk5: 384a 32894398i bk6: 384a 32894399i bk7: 436a 32894364i bk8: 448a 32893691i bk9: 476a 32893834i bk10: 512a 32893885i bk11: 512a 32894633i bk12: 512a 32893088i bk13: 456a 32893012i bk14: 448a 32892728i bk15: 448a 32881072i 
dram_util_bins: 0 0 0 0 0 0 0 0 0 0
dram_eff_bins: 0 0 0 0 0 0 0 0 0 0
mrqq: max=3 avg=0.0011192
Cache L2_bank_004:
MSHR contents
MSHR: tag=0x80151480, atomic=0 1 entries : 0x9129400 :  mf: uid=239825911, sid10:w01, part=4, addr=0x80151480, load , size=128, unknown  status = IN_PARTITION_DRAM (18276378), 

DRAM[4]: 16 bks, busW=4 BL=8 CL=12, tRRD=2 tCCD=6, tRCD=12 tRAS=28 tRP=12 tRC=40
n_cmd=32897481 n_nop=32884874 n_act=544 n_pre=528 n_req=5768 n_rd=7207 n_write=4328 bw_util=0.0007013
n_activity=101094 dram_eff=0.2282
bk0: 464a 32894423i bk1: 448a 32894494i bk2: 448a 32894711i bk3: 444a 32894648i bk4: 384a 32894279i bk5: 384a 32894455i bk6: 384a 32894577i bk7: 436a 32894604i bk8: 448a 32893768i bk9: 476a 32893768i bk10: 512a 32893987i bk11: 512a 32894607i bk12: 512a 32893119i bk13: 459a 32892853i bk14: 448a 32892565i bk15: 448a 32880162i 
dram_util_bins: 0 0 0 0 0 0 0 0 0 0
dram_eff_bins: 0 0 0 0 0 0 0 0 0 0
mrqq: max=6 avg=0.00115662
Cache L2_bank_000:	Size = 131072 B (64 Set x 16-way x 128 byte line)
		Access = 167186, Miss = 3607 (0.0216), PendingHit = 365 (0.00218)
Cache L2_bank_001:	Size = 131072 B (64 Set x 16-way x 128 byte line)
		Access = 167172, Miss = 3604 (0.0216), PendingHit = 372 (0.00223)
Cache L2_bank_002:	Size = 131072 B (64 Set x 16-way x 128 byte line)
		Access = 167175, Miss = 3604 (0.0216), PendingHit = 388 (0.00232)
Cache L2_bank_003:	Size = 131072 B (64 Set x 16-way x 128 byte line)
		Access = 167131, Miss = 3605 (0.0216), PendingHit = 388 (0.00232)
Cache L2_bank_004:	Size = 131072 B (64 Set x 16-way x 128 byte line)
		Access = 167108, Miss = 3604 (0.0216), PendingHit = 387 (0.00232)
L2 Cache Total Miss Rate = 0.022

icnt_total_pkts_mem_to_simt=4133748
icnt_total_pkts_simt_to_mem=879036

LD_mem_lat_dist  0 0 0 0 0 0 0 0 0 0 0 0 0 0 0 0 0 0 0 0 0 0 0 0 0 0 0
ST_mem_lat_dist  0 0 0 0 0 0 0 0 0 0 0 0 0 0 0 0 0 0 0 0 0 0 0 0 0 0 0
Traffic 0 Stat
%=================================
% Average latency = 1.08265
% Accepted packets = 0 at node 0 (avg = 0.00104558)
lat(1) = 1.08265;
thru(1,:) = [ 0 0 0 0 0 0 0 0 0 0 0 0 0 0 0.00481064 0.00481003 0.00481012 0.00480913 0.0048085 0 0 0 0 ];
% latency change    = 1
% throughput change = 1
Traffic 1 Stat
%=================================
% Average latency = 6.83372
% Accepted packets = 0 at node 14 (avg = 0.00491695)
lat(2) = 6.83372;
thru(2,:) = [ 0.00841534 0.00734202 0.00821128 0.00789215 0.00828761 0.00777085 0.00780921 0.00820141 0.00825002 0.00851985 0.00820264 0.00826219 0.00792252 0.00800282 0 0 0 0 0 0 0 0 0 ];
% latency change    = 0.841572
% throughput change = 0.787351
----------------------------Interconnect-DETAILS---------------------------------=======Traffic[0]class0 ======
Traffic[0]class0Overall average latency = 1.08265 (1 samples)
Traffic[0]class0Overall average accepted rate = 0.00104558 (1 samples)
Traffic[0]class0Overall min accepted rate = 0 (1 samples)
traffic_manager/latency_stat_0_freq = [ 0 819427 4805 213 160 7451 1153 374 1545 379 92 11 2 2 2 2 0 1 1 1 0 1 0 4 0 2 0 2 0 0 0 4 3 2 0 1 0 2 0 1 0 3 0 2 1 1 1 3 1 2 0 2 0 6 0 2 0 4 0 0 0 10 0 3 0 1 1 4 0 3 0 2 0 4 0 5 0 0 1 3 1 7 0 7 1 8 1 7 0 7 1 2 0 0 0 1 0 1 0 1 0 1 0 0 0 3 0 1 0 3 0 1 0 0 0 1 0 0 0 0 0 2 0 0 0 0 0 0 0 0 0 0 0 0 0 0 0 1 0 0 0 0 0 0 0 4 0 2 0 0 0 0 0 0 0 0 0 0 0 0 0 0 0 0 0 0 0 0 0 0 0 0 0 0 0 0 0 0 0 0 0 0 0 0 0 0 0 0 0 0 0 0 0 0 0 0 0 0 0 0 0 0 0 0 0 0 0 0 0 0 0 0 0 0 0 0 0 0 0 0 0 0 0 0 0 0 0 0 0 0 0 0 0 0 0 0 0 0 0 0 0 0 0 0 0 0 0 0 0 0 0 0 0 0 0 0 0 0 0 0 0 0 0 0 0 0 0 0 0 0 0 0 0 0 0 0 0 0 0 0 0 0 0 0 0 0 0 0 0 0 0 0 0 0 0 0 0 0 0 0 0 0 0 0 0 0 0 0 0 0 0 0 0 0 0 0 0 0 0 0 0 0 0 0 0 0 0 0 0 0 0 0 0 0 0 0 0 0 0 0 0 0 0 0 0 0 0 0 0 0 0 0 0 0 0 0 0 0 0 0 0 0 0 0 0 0 0 0 0 0 0 0 0 0 0 0 0 0 0 0 0 0 0 0 0 0 0 0 0 0 0 0 0 0 0 0 0 0 0 0 0 0 0 0 0 0 0 0 0 0 0 0 0 0 0 0 0 0 0 0 0 0 0 0 0 0 0 0 0 0 0 0 0 0 0 0 0 0 0 0 0 0 0 0 0 0 0 0 0 0 0 0 0 0 0 0 0 0 0 0 0 0 0 0 0 0 0 0 0 0 0 0 0 0 0 0 0 0 0 0 0 0 0 0 0 0 0 0 0 0 0 0 0 0 0 0 0 0 0 0 0 0 0 0 0 0 0 0 0 0 0 0 0 0 0 0 0 0 0 0 0 0 0 0 0 0 0 0 0 0 0 0 0 0 0 0 0 0 0 0 0 0 0 0 0 0 0 0 0 0 0 0 0 0 0 0 0 0 0 0 0 0 0 0 0 0 0 0 0 0 0 0 0 0 0 0 0 0 0 0 0 0 0 0 0 0 0 0 0 0 0 0 0 0 0 0 0 0 0 0 0 0 0 0 0 0 0 0 0 0 0 0 0 0 0 0 0 0 0 0 0 0 0 0 0 0 0 0 0 0 0 0 0 0 0 0 0 0 0 0 0 0 0 0 0 0 0 0 0 0 0 0 0 0 0 0 0 0 0 0 0 0 0 0 0 0 0 0 0 0 0 0 0 0 0 0 0 0 0 0 0 0 0 0 0 0 0 0 0 0 0 0 0 0 0 0 0 0 0 0 0 0 0 0 0 0 0 0 0 0 0 0 0 0 0 0 0 0 0 0 0 0 0 0 0 0 0 0 0 0 0 0 0 0 0 0 0 0 0 0 0 0 0 0 0 0 0 0 0 0 0 0 0 0 0 0 0 0 0 0 0 0 0 0 0 0 0 0 0 0 0 0 0 0 0 0 0 0 0 0 0 0 0 0 0 0 0 0 0 0 0 0 0 0 0 0 0 0 0 0 0 0 0 0 0 0 0 0 0 0 0 0 0 0 0 0 0 0 0 0 0 0 0 0 0 0 0 0 0 0 0 0 0 0 0 0 0 0 0 0 0 0 0 0 0 0 0 0 0 0 0 0 0 0 0 0 0 0 0 0 0 0 0 0 0 0 0 0 0 0 0 0 0 0 0 0 0 0 0 0 0 0 0 0 0 0 0 0 0 0 0 0 0 0 0 0 0 0 0 0 0 0 0 0 0 0 0 0 0 0 0 0 0 0 0 0 0 0 0 0 0 0 0 0 0 0 0 0 0 0 0 0 0 0 0 0 0 0 0 0 0 0 0 0 0 0 0 0 0 0 0 0 0 0 0 0 0 0 0 0 0 0 0 0 0 0 0 0 0 0 0 0 0 0 0 0 0 0 0 0 0 0 0 0 0 0 0 0 0 0 0 0 0 0 0 0 0 0 0 0 ];
Traffic[0]class1Average hops = 1 (835772 samples)
traffic_manager/hop_stats_freq = [ 0 835772 0 0 0 0 0 0 0 0 0 0 0 0 0 0 0 0 0 0 ];
=======Traffic[1]class0 ======
Traffic[1]class0Overall average latency = 6.83372 (1 samples)
Traffic[1]class0Overall average accepted rate = 0.00491695 (1 samples)
Traffic[1]class0Overall min accepted rate = 0 (1 samples)
traffic_manager/latency_stat_0_freq = [ 0 10417 95 505 149 390315 8293 11375 337583 19851 7013 6438 15680 7239 13843 832 3031 674 753 528 311 325 231 60 95 28 66 19 5 9 4 4 0 1 0 0 0 0 0 0 0 0 0 0 0 0 0 0 0 0 0 0 0 0 0 0 0 0 0 0 0 0 0 0 0 0 0 0 0 0 0 0 0 0 0 0 0 0 0 0 0 0 0 0 0 0 0 0 0 0 0 0 0 0 0 0 0 0 0 0 0 0 0 0 0 0 0 0 0 0 0 0 0 0 0 0 0 0 0 0 0 0 0 0 0 0 0 0 0 0 0 0 0 0 0 0 0 0 0 0 0 0 0 0 0 0 0 0 0 0 0 0 0 0 0 0 0 0 0 0 0 0 0 0 0 0 0 0 0 0 0 0 0 0 0 0 0 0 0 0 0 0 0 0 0 0 0 0 0 0 0 0 0 0 0 0 0 0 0 0 0 0 0 0 0 0 0 0 0 0 0 0 0 0 0 0 0 0 0 0 0 0 0 0 0 0 0 0 0 0 0 0 0 0 0 0 0 0 0 0 0 0 0 0 0 0 0 0 0 0 0 0 0 0 0 0 0 0 0 0 0 0 0 0 0 0 0 0 0 0 0 0 0 0 0 0 0 0 0 0 0 0 0 0 0 0 0 0 0 0 0 0 0 0 0 0 0 0 0 0 0 0 0 0 0 0 0 0 0 0 0 0 0 0 0 0 0 0 0 0 0 0 0 0 0 0 0 0 0 0 0 0 0 0 0 0 0 0 0 0 0 0 0 0 0 0 0 0 0 0 0 0 0 0 0 0 0 0 0 0 0 0 0 0 0 0 0 0 0 0 0 0 0 0 0 0 0 0 0 0 0 0 0 0 0 0 0 0 0 0 0 0 0 0 0 0 0 0 0 0 0 0 0 0 0 0 0 0 0 0 0 0 0 0 0 0 0 0 0 0 0 0 0 0 0 0 0 0 0 0 0 0 0 0 0 0 0 0 0 0 0 0 0 0 0 0 0 0 0 0 0 0 0 0 0 0 0 0 0 0 0 0 0 0 0 0 0 0 0 0 0 0 0 0 0 0 0 0 0 0 0 0 0 0 0 0 0 0 0 0 0 0 0 0 0 0 0 0 0 0 0 0 0 0 0 0 0 0 0 0 0 0 0 0 0 0 0 0 0 0 0 0 0 0 0 0 0 0 0 0 0 0 0 0 0 0 0 0 0 0 0 0 0 0 0 0 0 0 0 0 0 0 0 0 0 0 0 0 0 0 0 0 0 0 0 0 0 0 0 0 0 0 0 0 0 0 0 0 0 0 0 0 0 0 0 0 0 0 0 0 0 0 0 0 0 0 0 0 0 0 0 0 0 0 0 0 0 0 0 0 0 0 0 0 0 0 0 0 0 0 0 0 0 0 0 0 0 0 0 0 0 0 0 0 0 0 0 0 0 0 0 0 0 0 0 0 0 0 0 0 0 0 0 0 0 0 0 0 0 0 0 0 0 0 0 0 0 0 0 0 0 0 0 0 0 0 0 0 0 0 0 0 0 0 0 0 0 0 0 0 0 0 0 0 0 0 0 0 0 0 0 0 0 0 0 0 0 0 0 0 0 0 0 0 0 0 0 0 0 0 0 0 0 0 0 0 0 0 0 0 0 0 0 0 0 0 0 0 0 0 0 0 0 0 0 0 0 0 0 0 0 0 0 0 0 0 0 0 0 0 0 0 0 0 0 0 0 0 0 0 0 0 0 0 0 0 0 0 0 0 0 0 0 0 0 0 0 0 0 0 0 0 0 0 0 0 0 0 0 0 0 0 0 0 0 0 0 0 0 0 0 0 0 0 0 0 0 0 0 0 0 0 0 0 0 0 0 0 0 0 0 0 0 0 0 0 0 0 0 0 0 0 0 0 0 0 0 0 0 0 0 0 0 0 0 0 0 0 0 0 0 0 0 0 0 0 0 0 0 0 0 0 0 0 0 0 0 0 0 0 0 0 0 0 0 0 0 0 0 0 0 0 0 0 0 0 0 0 0 0 0 0 0 0 0 0 0 0 0 0 0 0 0 0 0 0 0 0 0 0 0 0 0 0 0 0 0 0 0 0 0 0 0 0 0 0 0 0 0 0 0 0 0 0 0 0 0 0 0 0 0 0 0 0 0 0 0 0 0 0 0 0 0 0 0 0 0 0 0 0 0 0 0 0 0 0 0 0 0 0 0 0 0 0 0 0 0 0 0 0 0 0 0 0 0 0 0 0 0 0 ];
Traffic[1]class1Average hops = 1 (835772 samples)
traffic_manager/hop_stats_freq = [ 0 835772 0 0 0 0 0 0 0 0 0 0 0 0 0 0 0 0 0 0 ];
----------------------------END-of-Interconnect-DETAILS-------------------------

gpgpu_simulation_time = 0 days, 6 hrs, 52 min, 1 sec (24721 sec)
gpgpu_simulation_rate = 490002 (inst/sec)
gpgpu_simulation_rate = 739 (cycle/sec)
  computing plane 1
kernel '_Z29cuda_cutoff_potential_latticeiiP6float4fffPfi' transfer to GPU hardware scheduler
kernel_name = _Z29cuda_cutoff_potential_latticeiiP6float4fffPfi 
kernel_launch_uid = 2 
gpu_sim_cycle = 22300963
gpu_sim_insn = 14760151048
gpu_ipc =     661.8616
gpu_tot_sim_cycle = 40577342
gpu_tot_sim_insn = 26873499904
gpu_tot_ipc =     662.2784
gpu_tot_issued_cta = 0
gpu_stall_dramfull = 20694
gpu_stall_icnt2sh    = 88270
gpu_total_sim_rate=425975
Cache L1D_000:	Size = 16384 B (32 Set x 4-way x 128 byte line)
		Access = 259290, Miss = 123109 (0.475), PendingHit = 243 (0.000937)
Cache L1D_001:	Size = 16384 B (32 Set x 4-way x 128 byte line)
		Access = 259290, Miss = 111958 (0.432), PendingHit = 2506 (0.00966)
Cache L1D_002:	Size = 16384 B (32 Set x 4-way x 128 byte line)
		Access = 258620, Miss = 117740 (0.455), PendingHit = 670 (0.00259)
Cache L1D_003:	Size = 16384 B (32 Set x 4-way x 128 byte line)
		Access = 258620, Miss = 112621 (0.435), PendingHit = 1737 (0.00672)
Cache L1D_004:	Size = 16384 B (32 Set x 4-way x 128 byte line)
		Access = 258620, Miss = 119087 (0.46), PendingHit = 970 (0.00375)
Cache L1D_005:	Size = 16384 B (32 Set x 4-way x 128 byte line)
		Access = 257280, Miss = 113221 (0.44), PendingHit = 1153 (0.00448)
Cache L1D_006:	Size = 16384 B (32 Set x 4-way x 128 byte line)
		Access = 259960, Miss = 116047 (0.446), PendingHit = 1711 (0.00658)
Cache L1D_007:	Size = 16384 B (32 Set x 4-way x 128 byte line)
		Access = 258620, Miss = 121146 (0.468), PendingHit = 364 (0.00141)
Cache L1D_008:	Size = 16384 B (32 Set x 4-way x 128 byte line)
		Access = 257950, Miss = 120731 (0.468), PendingHit = 1386 (0.00537)
Cache L1D_009:	Size = 16384 B (32 Set x 4-way x 128 byte line)
		Access = 259290, Miss = 124392 (0.48), PendingHit = 383 (0.00148)
Cache L1D_010:	Size = 16384 B (32 Set x 4-way x 128 byte line)
		Access = 259290, Miss = 117921 (0.455), PendingHit = 886 (0.00342)
Cache L1D_011:	Size = 16384 B (32 Set x 4-way x 128 byte line)
		Access = 257280, Miss = 118997 (0.463), PendingHit = 1699 (0.0066)
Cache L1D_012:	Size = 16384 B (32 Set x 4-way x 128 byte line)
		Access = 259290, Miss = 117220 (0.452), PendingHit = 1516 (0.00585)
Cache L1D_013:	Size = 16384 B (32 Set x 4-way x 128 byte line)
		Access = 259960, Miss = 116263 (0.447), PendingHit = 1343 (0.00517)
total_dl1_misses=1650453
total_dl1_accesses=3623360
total_dl1_miss_rate= 0.455503
Shader 0 dynamic_warp_id issue ditsribution:
dynamic_warp_id:
0, 1, 2, 3, 4, 5, 6, 7, 8, 9, 10, 11, 12, 13, 14, 15, 16, 17, 18, 19, 20, 21, 22, 23, 24, 25, 26, 27, 28, 29, 30, 31, 32, 33, 34, 35, 36, 37, 38, 39, 40, 41, 42, 43, 44, 45, 46, 47, 48, 49, 50, 51, 52, 53, 54, 55, 56, 57, 58, 59, 60, 61, 62, 63, 64, 65, 66, 67, 68, 69, 70, 71, 72, 73, 74, 75, 76, 77, 78, 79, 80, 81, 82, 83, 84, 85, 86, 87, 88, 89, 90, 91, 92, 93, 94, 95, 96, 97, 98, 99, 100, 101, 102, 103, 104, 105, 106, 107, 108, 109, 110, 111, 112, 113, 114, 115, 116, 117, 118, 119, 120, 121, 122, 123, 124, 125, 126, 127, 128, 129, 130, 131, 132, 133, 134, 135, 136, 137, 138, 139, 140, 141, 142, 143, 144, 145, 146, 147, 148, 149, 150, 151, 152, 153, 154, 155, 156, 157, 158, 159, 160, 161, 162, 163, 164, 165, 166, 167, 168, 169, 170, 171, 172, 173, 174, 175, 176, 177, 178, 179, 180, 181, 182, 183, 184, 185, 186, 187, 188, 189, 190, 191, 192, 193, 194, 195, 196, 197, 198, 199, 200, 201, 202, 203, 204, 205, 206, 207, 208, 209, 210, 211, 212, 213, 214, 215, 216, 217, 218, 219, 220, 221, 222, 223, 224, 225, 226, 227, 228, 229, 230, 231, 232, 233, 234, 235, 236, 237, 238, 239, 240, 241, 242, 243, 244, 245, 246, 247, 248, 249, 250, 251, 252, 253, 254, 255, 256, 257, 258, 259, 260, 261, 262, 263, 264, 265, 266, 267, 268, 269, 270, 271, 272, 273, 274, 275, 276, 277, 278, 279, 280, 281, 282, 283, 284, 285, 286, 287, 288, 289, 290, 291, 292, 293, 294, 295, 296, 297, 298, 299, 300, 301, 302, 303, 304, 305, 306, 307, 308, 309, 310, 311, 312, 313, 314, 315, 316, 317, 318, 319, 320, 321, 322, 323, 324, 325, 326, 327, 328, 329, 330, 331, 332, 333, 334, 335, 336, 337, 338, 339, 340, 341, 342, 343, 344, 345, 346, 347, 348, 349, 350, 351, 352, 353, 354, 355, 356, 357, 358, 359, 360, 361, 362, 363, 364, 365, 366, 367, 368, 369, 370, 371, 372, 373, 374, 375, 376, 377, 378, 379, 380, 381, 382, 383, 384, 385, 386, 387, 388, 389, 390, 391, 392, 393, 394, 395, 396, 397, 398, 399, 400, 401, 402, 403, 404, 405, 406, 407, 408, 409, 410, 411, 412, 413, 414, 415, 416, 417, 418, 419, 420, 421, 422, 423, 424, 425, 426, 427, 428, 429, 430, 431, 432, 433, 434, 435, 436, 437, 438, 439, 440, 441, 442, 443, 444, 445, 446, 447, 448, 449, 450, 451, 452, 453, 454, 455, 456, 457, 458, 459, 460, 461, 462, 463, 464, 465, 466, 467, 468, 469, 470, 471, 472, 473, 474, 475, 476, 477, 478, 479, 480, 481, 482, 483, 484, 485, 486, 487, 488, 489, 490, 491, 492, 493, 494, 495, 496, 497, 498, 499, 500, 501, 502, 503, 504, 505, 506, 507, 508, 509, 510, 511, 512, 513, 514, 515, 516, 517, 518, 519, 520, 521, 522, 523, 524, 525, 526, 527, 528, 529, 530, 531, 532, 533, 534, 535, 536, 537, 538, 539, 540, 541, 542, 543, 544, 545, 546, 547, 548, 549, 550, 551, 552, 553, 554, 555, 556, 557, 558, 559, 560, 561, 562, 563, 564, 565, 566, 567, 568, 569, 570, 571, 572, 573, 574, 575, 576, 577, 578, 579, 580, 581, 582, 583, 584, 585, 586, 587, 588, 589, 590, 591, 592, 593, 594, 595, 596, 597, 598, 599, 600, 601, 602, 603, 604, 605, 606, 607, 608, 609, 610, 611, 612, 613, 614, 615, 616, 617, 618, 619, 620, 621, 622, 623, 624, 625, 626, 627, 628, 629, 630, 631, 632, 633, 634, 635, 636, 637, 638, 639, 640, 641, 642, 643, 644, 645, 646, 647, 648, 649, 650, 651, 652, 653, 654, 655, 656, 657, 658, 659, 660, 661, 662, 663, 664, 665, 666, 667, 668, 669, 670, 671, 672, 673, 674, 675, 676, 677, 678, 679, 680, 681, 682, 683, 684, 685, 686, 687, 688, 689, 690, 691, 692, 693, 694, 695, 696, 697, 698, 699, 700, 701, 702, 703, 704, 705, 706, 707, 708, 709, 710, 711, 712, 713, 714, 715, 716, 717, 718, 719, 720, 721, 722, 723, 724, 725, 726, 727, 728, 729, 730, 731, 732, 733, 734, 735, 736, 737, 738, 739, 740, 741, 742, 743, 744, 745, 746, 747, 748, 749, 750, 751, 752, 753, 754, 755, 756, 757, 758, 759, 760, 761, 762, 763, 764, 765, 766, 767, 768, 769, 770, 771, 772, 773, 774, 775, 776, 777, 778, 779, 780, 781, 782, 783, 784, 785, 786, 787, 788, 789, 790, 791, 792, 793, 794, 795, 796, 797, 798, 799, 800, 801, 802, 803, 804, 805, 806, 807, 808, 809, 810, 811, 812, 813, 814, 815, 816, 817, 818, 819, 820, 821, 822, 823, 824, 825, 826, 827, 828, 829, 830, 831, 832, 833, 834, 835, 836, 837, 838, 839, 840, 841, 842, 843, 844, 845, 846, 847, 848, 849, 850, 851, 852, 853, 854, 855, 856, 857, 858, 859, 860, 861, 862, 863, 864, 865, 866, 867, 868, 869, 870, 871, 872, 873, 874, 875, 876, 877, 878, 879, 880, 881, 882, 883, 884, 885, 886, 887, 888, 889, 890, 891, 892, 893, 894, 895, 896, 897, 898, 899, 900, 901, 902, 903, 904, 905, 906, 907, 908, 909, 910, 911, 912, 913, 914, 915, 916, 917, 918, 919, 920, 921, 922, 923, 924, 925, 926, 927, 928, 929, 930, 931, 932, 933, 934, 935, 936, 937, 938, 939, 940, 941, 942, 943, 944, 945, 946, 947, 948, 949, 950, 951, 952, 953, 954, 955, 956, 957, 958, 959, 960, 961, 962, 963, 964, 965, 966, 967, 968, 969, 970, 971, 972, 973, 974, 975, 976, 977, 978, 979, 980, 981, 982, 983, 984, 985, 986, 987, 988, 989, 990, 991, 992, 993, 994, 995, 996, 997, 998, 999, 1000, 1001, 1002, 1003, 1004, 1005, 1006, 1007, 1008, 1009, 1010, 1011, 1012, 1013, 1014, 1015, 1016, 1017, 1018, 1019, 1020, 1021, 1022, 1023, 1024, 1025, 1026, 1027, 1028, 1029, 1030, 1031, 1032, 1033, 1034, 1035, 1036, 1037, 1038, 1039, 1040, 1041, 1042, 1043, 1044, 1045, 1046, 1047, 1048, 1049, 1050, 1051, 1052, 1053, 1054, 1055, 1056, 1057, 1058, 1059, 1060, 1061, 1062, 1063, 1064, 1065, 1066, 1067, 1068, 1069, 1070, 1071, 1072, 1073, 1074, 1075, 1076, 1077, 1078, 1079, 1080, 1081, 1082, 1083, 1084, 1085, 1086, 1087, 1088, 1089, 1090, 1091, 1092, 1093, 1094, 1095, 1096, 1097, 1098, 1099, 1100, 1101, 1102, 1103, 1104, 1105, 1106, 1107, 1108, 1109, 1110, 1111, 1112, 1113, 1114, 1115, 1116, 1117, 1118, 1119, 1120, 1121, 1122, 1123, 1124, 1125, 1126, 1127, 1128, 1129, 1130, 1131, 1132, 1133, 1134, 1135, 1136, 1137, 1138, 1139, 1140, 1141, 1142, 1143, 1144, 1145, 1146, 1147, 1148, 1149, 1150, 1151, 1152, 1153, 1154, 1155, 1156, 1157, 1158, 1159, 1160, 1161, 1162, 1163, 1164, 1165, 1166, 1167, 1168, 1169, 1170, 1171, 1172, 1173, 1174, 1175, 1176, 1177, 1178, 1179, 1180, 1181, 1182, 1183, 1184, 1185, 1186, 1187, 1188, 1189, 1190, 1191, 1192, 1193, 1194, 1195, 1196, 1197, 1198, 1199, 1200, 1201, 1202, 1203, 1204, 1205, 1206, 1207, 1208, 1209, 1210, 1211, 1212, 1213, 1214, 1215, 1216, 1217, 1218, 1219, 1220, 1221, 1222, 1223, 1224, 1225, 1226, 1227, 1228, 1229, 1230, 1231, 1232, 1233, 1234, 1235, 1236, 1237, 1238, 1239, 1240, 1241, 1242, 1243, 1244, 1245, 1246, 1247, 1248, 1249, 1250, 1251, 1252, 1253, 1254, 1255, 1256, 1257, 1258, 1259, 1260, 1261, 1262, 1263, 1264, 1265, 1266, 1267, 1268, 1269, 1270, 1271, 1272, 1273, 1274, 1275, 1276, 1277, 1278, 1279, 1280, 1281, 1282, 1283, 1284, 1285, 1286, 1287, 1288, 1289, 1290, 1291, 1292, 1293, 1294, 1295, 1296, 1297, 1298, 1299, 1300, 1301, 1302, 1303, 1304, 1305, 1306, 1307, 1308, 1309, 1310, 1311, 1312, 1313, 1314, 1315, 1316, 1317, 1318, 1319, 1320, 1321, 1322, 1323, 1324, 1325, 1326, 1327, 1328, 1329, 1330, 1331, 1332, 1333, 1334, 1335, 1336, 1337, 1338, 1339, 1340, 1341, 1342, 1343, 1344, 1345, 1346, 1347, 1348, 1349, 1350, 1351, 1352, 1353, 1354, 1355, 1356, 1357, 1358, 1359, 1360, 1361, 1362, 1363, 1364, 1365, 1366, 1367, 1368, 1369, 1370, 1371, 1372, 1373, 1374, 1375, 1376, 1377, 1378, 1379, 1380, 1381, 1382, 1383, 1384, 1385, 1386, 1387, 1388, 1389, 1390, 1391, 1392, 1393, 1394, 1395, 1396, 1397, 1398, 1399, 1400, 1401, 1402, 1403, 1404, 1405, 1406, 1407, 1408, 1409, 1410, 1411, 1412, 1413, 1414, 1415, 1416, 1417, 1418, 1419, 1420, 1421, 1422, 1423, 1424, 1425, 1426, 1427, 1428, 1429, 1430, 1431, 1432, 1433, 1434, 1435, 1436, 1437, 1438, 1439, 1440, 1441, 1442, 1443, 1444, 1445, 1446, 1447, 1448, 1449, 1450, 1451, 1452, 1453, 1454, 1455, 1456, 1457, 1458, 1459, 1460, 1461, 1462, 1463, 1464, 1465, 1466, 1467, 1468, 1469, 1470, 1471, 1472, 1473, 1474, 1475, 1476, 1477, 1478, 1479, 1480, 1481, 1482, 1483, 1484, 1485, 1486, 1487, 1488, 1489, 1490, 1491, 1492, 1493, 1494, 1495, 1496, 1497, 1498, 1499, 1500, 1501, 1502, 1503, 1504, 1505, 1506, 1507, 1508, 1509, 1510, 1511, 1512, 1513, 1514, 1515, 1516, 1517, 1518, 1519, 1520, 1521, 1522, 1523, 1524, 1525, 1526, 1527, 1528, 1529, 1530, 1531, 1532, 1533, 1534, 1535, 1536, 1537, 1538, 1539, 1540, 1541, 1542, 1543, 1544, 1545, 1546, 1547, 
distro:
26494, 27007, 26647, 27232, 27377, 27926, 27521, 28133, 26045, 26432, 26108, 26594, 26588, 27182, 26687, 27281, 27482, 28049, 27599, 28193, 27349, 27997, 27475, 28069, 15458, 15674, 15512, 15755, 31284, 31653, 31500, 31833, 31901, 32243, 32072, 32423, 32558, 32990, 32711, 33170, 31662, 32058, 31833, 32193, 32532, 32982, 32694, 33090, 32303, 32762, 32456, 32879, 21829, 22153, 21937, 22243, 23404, 23584, 23530, 23719, 27754, 28006, 27907, 28105, 37174, 37480, 37426, 37777, 37298, 37595, 37442, 37955, 37754, 38141, 37880, 38375, 37518, 37842, 37725, 38040, 36031, 36265, 36274, 36499, 32717, 32924, 32879, 33158, 37585, 37531, 37738, 37729, 42257, 42239, 42464, 42437, 42179, 42260, 42458, 42503, 42178, 42232, 42358, 42394, 41531, 41540, 41756, 41720, 42845, 42809, 43097, 43079, 33107, 33089, 33251, 33341, 26336, 26291, 26462, 26426, 37299, 37281, 37542, 37533, 44404, 44395, 44674, 44647, 42709, 42772, 42907, 42970, 44342, 44351, 44558, 44675, 42260, 42404, 42512, 42656, 41698, 41707, 41932, 41959, 33588, 33534, 33759, 33732, 42782, 42863, 43106, 43133, 43019, 43073, 43325, 43298, 43260, 43278, 43458, 43557, 44520, 44709, 44799, 44880, 43858, 43903, 44092, 44164, 43279, 43234, 43540, 43540, 26446, 26518, 26608, 26644, 26680, 26770, 26833, 26869, 43364, 43373, 43643, 43742, 43279, 43216, 43432, 43549, 44800, 44719, 44989, 45016, 43142, 43394, 43439, 43637, 41858, 41822, 42137, 42128, 42415, 42460, 42595, 42658, 22830, 22893, 22956, 23028, 42127, 42280, 42379, 42514, 44248, 44239, 44473, 44545, 44345, 44336, 44615, 44561, 44140, 44203, 44437, 44446, 43212, 43347, 43464, 43536, 42941, 42905, 43175, 43130, 22664, 22718, 22790, 22853, 31665, 31692, 31926, 31863, 41823, 41814, 42003, 42084, 43907, 43871, 44123, 44150, 44183, 44147, 44471, 44417, 43992, 43839, 44253, 44073, 42854, 42755, 43097, 43007, 38081, 38045, 38279, 38261, 27892, 27793, 27982, 27964, 32682, 32664, 32835, 32808, 44060, 43916, 44330, 44204, 42061, 42088, 42349, 42367, 42436, 42445, 42661, 42697, 42635, 42644, 42878, 42950, 43785, 43884, 44019, 44118, 38845, 38827, 39133, 39061, 32352, 32343, 32478, 32523, 42788, 42779, 43031, 43067, 44022, 44004, 44346, 44301, 44307, 44226, 44550, 44487, 42425, 42470, 42776, 42686, 42882, 42819, 43089, 42999, 39206, 39143, 39386, 39368, 28195, 28339, 28339, 28492, 38363, 38381, 38588, 38633, 42679, 42580, 42940, 42859, 42914, 42941, 43229, 43193, 42215, 42143, 42449, 42359, 42859, 42877, 43111, 43075, 42543, 42579, 42849, 42858, 33591, 33564, 33789, 33825, 32983, 32965, 33127, 33172, 42971, 43043, 43340, 43196, 41957, 41912, 42128, 42083, 41805, 41634, 42039, 41886, 43070, 42908, 43322, 43169, 43222, 43051, 43402, 43231, 39717, 39753, 39942, 40014, 22757, 22748, 22856, 22838, 41883, 41712, 42144, 41991, 43827, 43782, 44043, 44007, 43603, 43612, 43864, 43846, 42574, 42529, 42826, 42763, 42412, 42421, 42673, 42646, 43699, 43681, 44014, 43933, 27824, 27851, 27986, 28013, 38306, 38396, 38540, 38585, 43587, 43560, 43875, 43785, 42785, 42839, 43010, 43127, 42742, 42805, 43030, 43021, 43399, 43354, 43633, 43642, 43530, 43557, 43782, 43782, 33984, 33885, 34155, 34029, 22925, 22916, 22952, 22988, 38799, 38898, 38970, 38988, 42422, 42278, 42638, 42611, 41835, 41790, 42204, 42096, 40790, 40988, 41042, 41240, 42862, 42907, 43105, 43177, 44302, 44482, 44500, 44680, 33519, 33573, 33672, 33744, 37789, 37735, 38023, 37978, 43588, 43741, 43903, 43975, 43309, 43309, 43525, 43534, 42171, 42072, 42369, 42243, 42607, 42616, 42787, 42832, 43653, 43662, 43923, 43896, 32872, 32881, 33133, 33016, 22427, 22382, 22553, 22490, 41873, 41873, 42152, 42125, 42164, 42254, 42578, 42578, 41811, 41847, 42063, 42117, 42472, 42490, 42724, 42697, 43220, 43211, 43427, 43526, 44237, 44192, 44489, 44381, 28480, 28534, 28660, 28660, 32802, 32910, 32946, 33072, 38218, 38119, 38326, 38317, 41844, 41916, 42078, 42096, 42538, 42538, 42718, 42727, 42306, 42441, 42486, 42702, 42094, 42049, 42364, 42292, 39179, 39179, 39422, 39413, 33962, 33836, 34142, 33962, 42636, 42600, 42915, 42825, 43275, 43383, 43581, 43590, 41982, 42135, 42252, 42306, 43951, 43942, 44131, 44194, 42627, 42726, 42870, 42924, 41908, 41980, 42214, 42160, 22306, 22324, 22477, 22414, 42405, 42378, 42612, 42648, 42855, 42873, 43044, 43116, 44012, 43841, 44174, 44147, 43029, 43011, 43200, 43299, 44541, 44550, 44739, 44757, 44655, 44610, 44925, 44862, 28006, 27943, 28168, 28159, 22865, 22883, 23027, 22982, 37504, 37567, 37711, 37774, 44224, 44404, 44431, 44638, 43385, 43385, 43682, 43583, 43054, 43063, 43261, 43270, 43805, 43922, 44102, 44219, 43883, 43865, 44189, 44063, 33175, 33301, 33355, 33526, 37650, 37515, 37920, 37749, 39239, 39194, 39518, 39392, 39738, 39594, 40026, 39783, 40867, 40633, 41074, 40894, 40889, 40601, 41186, 40835, 38649, 38424, 38865, 38622, 25882, 25765, 26026, 25909, 22202, 21959, 22328, 22130, 33486, 33180, 33783, 33387, 35381, 35003, 35597, 35129, 34287, 33882, 34575, 34035, 34146, 33768, 34362, 33948, 33600, 33294, 33789, 33474, 34041, 33672, 34176, 33789, 18735, 18627, 18834, 18726, 29005, 28501, 29176, 28681, 28255, 27976, 28516, 28129, 29100, 28605, 29217, 28704, 29134, 28666, 29314, 28801, 29530, 28999, 29710, 29170, 30036, 29451, 30162, 29586, 16382, 16067, 16436, 16130, 16634, 16382, 16724, 16418, 21453, 21039, 21543, 21147, 23226, 22749, 23343, 22866, 23332, 22945, 23431, 23062, 23522, 23072, 23666, 23198, 23316, 22893, 23415, 23010, 23432, 22910, 23567, 23000, 19114, 18718, 19186, 18808, 24540, 24918, 24612, 25071, 31610, 32240, 31709, 32456, 31476, 32088, 31584, 32250, 31845, 32565, 31926, 32655, 32024, 32609, 32087, 32735, 31890, 32439, 31935, 32538, 28293, 28824, 28383, 28896, 17673, 17970, 17727, 17997, 24439, 24727, 24502, 24844, 38953, 39502, 39097, 39673, 38374, 39040, 38491, 39139, 38549, 39116, 38648, 39278, 39222, 39906, 39384, 40023, 39224, 39881, 39395, 40043, 38001, 38478, 38172, 38604, 33885, 34146, 33984, 34290, 40024, 40420, 40141, 40600, 46003, 46552, 46174, 46723, 46321, 46960, 46537, 47077, 45366, 45843, 45555, 46095, 45092, 45515, 45290, 45803, 40087, 40555, 40384, 40798, 35324, 35711, 35504, 35846, 38241, 38394, 38403, 38511, 53000, 53018, 53270, 53189, 51156, 51057, 51399, 51300, 52092, 52155, 52308, 52425, 51776, 51821, 52028, 52001, 50569, 50587, 50911, 50857, 46299, 46434, 46524, 46677, 46567, 46648, 46783, 46783, 51344, 51317, 51605, 51560, 53294, 53213, 53456, 53420, 53175, 53193, 53382, 53472, 53616, 53670, 53814, 53859, 53001, 52956, 53235, 53208, 41484, 41520, 41619, 41736, 33748, 33694, 33847, 33838, 47034, 47061, 47205, 47268, 53467, 53440, 53791, 53719, 54448, 54430, 54583, 54610, 53608, 53437, 53815, 53761, 53714, 53858, 53912, 54047, 53376, 53268, 53583, 53592, 41347, 41338, 41500, 41581, 53817, 53727, 54096, 53934, 54287, 54341, 54467, 54620, 53652, 53625, 53886, 53940, 53062, 53053, 53233, 53287, 52958, 52886, 53183, 53165, 53231, 53231, 53483, 53375, 27207, 27261, 27315, 27351, 31869, 31923, 31923, 32058, 52971, 53070, 53304, 53250, 53691, 53691, 53952, 53961, 54011, 54110, 54272, 54317, 53840, 53651, 53984, 53867, 53821, 53821, 54037, 53965, 52350, 52404, 52701, 52674, 31864, 31765, 32008, 31864, 46745, 46691, 46925, 46808, 53732, 53705, 53993, 53975, 53217, 53073, 53460, 53325, 52990, 52918, 53224, 53107, 53960, 54041, 54140, 54167, 53765, 53765, 53954, 53927, 40940, 40931, 41093, 41102, 32143, 32125, 32287, 32224, 54953, 54845, 55124, 55097, 54557, 54467, 54809, 54665, 53385, 53439, 53664, 53718, 53398, 53398, 53659, 53578, 54604, 54586, 54820, 54757, 53144, 53090, 53450, 53333, 32818, 32809, 32890, 32899, 54136, 54037, 54343, 54289, 54158, 54266, 54419, 54437, 52916, 52826, 53132, 53024, 52493, 52628, 52826, 52862, 53861, 53843, 54086, 53987, 53516, 53525, 53804, 53777, 27029, 27128, 27047, 27218, 32876, 32858, 32975, 32993, 54924, 54969, 55131, 55176, 53168, 53150, 53456, 53375, 52457, 52358, 52637, 52574, 53831, 53849, 54074, 54020, 54155, 54191, 54362, 54416, 53599, 53635, 53779, 53878, 39149, 39140, 39293, 39311, 52179, 52197, 52377, 52431, 53031, 53049, 53301, 53265, 53197, 53098, 53377, 53413, 52590, 52563, 52743, 52788, 52790, 52754, 52997, 52970, 47669, 47669, 47867, 47903, 34543, 34588, 34660, 34714, 33408, 33399, 33561, 33489, 54283, 54319, 54517, 54553, 51942, 51942, 52257, 52140, 52601, 52412, 52754, 52628, 52936, 52972, 53179, 53188, 53178, 53124, 53403, 53268, 53490, 53553, 53688, 53760, 40984, 41002, 41083, 41128, 54253, 54181, 54460, 54397, 53617, 53806, 53851, 53941, 51718, 51700, 51916, 51862, 53046, 53073, 53271, 53199, 54189, 54243, 54342, 54396, 48730, 48649, 48919, 48874, 27565, 27493, 27592, 27583, 47231, 47240, 47375, 47465, 53881, 53917, 54151, 54142, 52871, 52934, 52979, 53141, 50896, 50905, 51202, 51085, 53261, 53378, 53522, 53567, 52720, 52801, 53044, 52972, 40680, 40797, 40815, 40986, 47359, 47359, 47575, 47548, 53051, 52943, 53267, 53132, 53798, 53591, 53996, 53825, 51504, 51612, 51702, 51810, 52094, 52202, 52436, 52517, 52857, 52749, 53046, 53019, 41232, 41151, 41385, 41322, 26769, 26805, 26922, 26886, 53073, 52902, 53127, 53046, 52523, 52541, 52766, 52748, 53129, 53120, 53318, 53318, 53200, 53326, 53497, 53452, 53188, 53125, 53386, 53413, 53552, 53507, 53705, 53795, 26947, 26803, 26992, 26938, 39506, 39488, 39659, 39605, 52427, 52274, 52634, 52517, 53056, 53173, 53353, 53434, 52784, 52919, 53045, 53162, 53919, 53910, 54135, 54063, 53702, 53693, 53945, 53819, 47614, 47578, 47785, 47785, 32158, 32104, 32293, 32221, 45351, 45315, 45603, 45531, 53651, 53768, 53903, 54047, 53811, 53955, 53973, 54045, 53972, 54098, 54224, 54332, 52728, 53043, 53088, 53205, 52368, 52467, 52584, 52665, 40434, 40344, 40569, 40524, 52211, 52238, 52454, 52436, 53650, 53731, 53884, 53956, 53631, 53523, 53892, 53793, 53281, 53200, 53479, 53380, 53683, 53629, 53899, 53854, 54579, 54678, 54804, 54885, 34455, 34545, 34581, 34635, 32335, 32335, 32461, 32461, 52142, 52034, 52331, 52313, 52850, 52886, 53021, 53138, 53537, 53474, 53789, 53816, 53613, 53793, 53928, 53964, 52996, 53059, 53176, 53266, 53470, 53650, 53794, 53866, 34473, 34572, 34563, 34617, 48685, 48289, 48838, 48487, 48088, 47764, 48277, 47935, 48648, 48378, 48855, 48585, 48803, 48542, 49046, 48812, 49583, 49286, 49736, 49313, 48570, 48318, 48732, 48444, 25313, 25079, 25376, 25169, 31216, 30811, 31315, 30937, 41904, 41256, 42165, 41427, 42304, 41836, 42538, 41998, 42226, 41794, 42469, 41920, 41572, 41176, 41788, 41347, 41479, 40912, 41623, 41065, 37307, 36821, 37469, 36992, 26736, 26142, 26826, 26241, 34165, 33418, 34327, 33616, 35721, 35109, 35793, 35199, 36027, 35226, 36099, 35316, 35857, 35119, 35938, 35155, 35588, 34886, 35723, 35039, 31861, 31348, 31978, 31420, 23631, 23298, 23703, 23415, 22413, 21873, 22494, 21990, 28427, 27644, 28499, 27752, 28203, 27483, 28275, 27609, 28566, 27873, 28629, 27990, 28571, 27788, 28661, 27896, 28104, 27321, 28176, 27393, 25793, 25253, 25955, 25334, 
gpgpu_n_tot_thrd_icount = 28723572160
gpgpu_n_tot_w_icount = 897611630
gpgpu_n_icache_hits = 487237860
gpgpu_n_icache_misses = 2039
gpgpu_n_l1dcache_read_hits = 1956340
gpgpu_n_l1dcache_read_misses = 1667020
gpgpu_n_l1dcache_write_accesses = 21632
gpgpu_n_l1dcache_wirte_misses = 21632
gpgpu_n_tcache_hits = 0
gpgpu_n_tcache_misses = 0
gpgpu_n_ccache_hits = 40998534
gpgpu_n_ccache_misses = 3816
gpgpu_n_stall_shd_mem = 4180570
gpgpu_n_mem_read_local = 0
gpgpu_n_mem_write_local = 0
gpgpu_n_mem_read_global = 1650453
gpgpu_n_mem_write_global = 21632
gpgpu_n_mem_texture = 0
gpgpu_n_mem_const = 924
gpgpu_n_load_insn  = 115947520
gpgpu_n_store_insn = 1384448
gpgpu_n_shmem_insn = -159355968
gpgpu_n_tex_insn = 0
gpgpu_n_const_mem_insn = 175305728
gpgpu_n_param_mem_insn = -2053555264
gpgpu_n_shmem_bkconflict = 0
gpgpu_n_cache_bkconflict = 0
gpgpu_n_intrawarp_mshr_merge = 0
gpgpu_n_cmem_portconflict = 567840
gpgpu_stall_shd_mem[c_mem][bk_conf] = 567840
gpgpu_stall_shd_mem[c_mem][mshr_rc] = 0
gpgpu_stall_shd_mem[c_mem][icnt_rc] = 0
gpgpu_stall_shd_mem[t_mem][mshr_rc] = 0
gpgpu_stall_shd_mem[t_mem][icnt_rc] = 0
gpgpu_stall_shd_mem[s_mem][bk_conf] = 1806272
gpgpu_stall_shd_mem[gl_mem][bk_conf] = 0
gpgpu_stall_shd_mem[gl_mem][coal_stall] = 1806458
gpgpu_stall_shd_mem[g_mem_ld][mshr_rc] = 0
gpgpu_stall_shd_mem[g_mem_ld][icnt_rc] = 0
gpgpu_stall_shd_mem[g_mem_ld][wb_icnt_rc] = 0
gpgpu_stall_shd_mem[g_mem_ld][wb_rsrv_fail] = 0
gpgpu_stall_shd_mem[g_mem_st][mshr_rc] = 0
gpgpu_stall_shd_mem[g_mem_st][icnt_rc] = 0
gpgpu_stall_shd_mem[g_mem_st][wb_icnt_rc] = 0
gpgpu_stall_shd_mem[g_mem_st][wb_rsrv_fail] = 0
gpgpu_stall_shd_mem[l_mem_ld][mshr_rc] = 0
gpgpu_stall_shd_mem[l_mem_ld][icnt_rc] = 0
gpgpu_stall_shd_mem[l_mem_ld][wb_icnt_rc] = 0
gpgpu_stall_shd_mem[l_mem_ld][wb_rsrv_fail] = 0
gpgpu_stall_shd_mem[l_mem_st][mshr_rc] = 0
gpgpu_stall_shd_mem[l_mem_st][icnt_rc] = 0
gpgpu_stall_shd_mem[l_mem_ld][wb_icnt_rc] = 0
gpgpu_stall_shd_mem[l_mem_ld][wb_rsrv_fail] = 0
gpu_reg_bank_conflict_stalls = 0
Warp Occupancy Distribution:
Stall:27112676	W0_Idle:195768	W0_Scoreboard:209327568	W1:2739969	W2:1854549	W3:2044566	W4:1984113	W5:1268649	W6:1913121	W7:1053396	W8:1998522	W9:1108584	W10:1375506	W11:1064574	W12:1645200	W13:1041615	W14:1547163	W15:1045179	W16:1922152	W17:946719	W18:1370475	W19:944073	W20:1519083	W21:1011402	W22:1481094	W23:965808	W24:1666557	W25:974601	W26:1374714	W27:874305	W28:1767222	W29:1405089	W30:1393398	W31:2522763	W32:851787469
maxmrqlatency = 47 
maxdqlatency = 0 
maxmflatency = 390 
averagemflatency = 110 
max_icnt2mem_latency = 176 
max_icnt2sh_latency = 40577341 
mrq_lat_table:31318 	7926 	5349 	10323 	2698 	18 	0 	0 	0 	0 	0 	0 	0 	0 	0 	0 	0 	0 	0 	0 	0 	0 	0 	0 	0 	0 	0 	0 	0 	0 	0 	0 	
dq_lat_table:0 	0 	0 	0 	0 	0 	0 	0 	0 	0 	0 	0 	0 	0 	0 	0 	0 	0 	0 	0 	0 	0 	0 	0 	0 	0 	0 	0 	0 	0 	0 	0 	
mf_lat_table:0 	0 	0 	0 	0 	0 	1628832 	43085 	1092 	0 	0 	0 	0 	0 	0 	0 	0 	0 	0 	0 	0 	0 	0 	0 	0 	0 	0 	0 	0 	0 	0 	0 	
icnt2mem_lat_table:136 	1648470 	23210 	270 	278 	404 	362 	61 	0 	0 	0 	0 	0 	0 	0 	0 	0 	0 	0 	0 	0 	0 	0 	0 	
icnt2sh_lat_table:0 	798962 	838807 	13595 	13 	0 	0 	0 	0 	0 	0 	0 	0 	0 	0 	0 	0 	168 	168 	352 	660 	1180 	2312 	4744 	
mf_lat_pw_table:8344 	3704 	0 	0 	0 	0 	70075 	2240 	1 	0 	0 	0 	0 	0 	0 	0 	0 	0 	0 	0 	0 	0 	0 	0 	0 	0 	0 	0 	0 	0 	0 	0 	
maximum concurrent accesses to same row:
dram[0]:        64        64        64        64        64        64        64        64        64        64        64        64        64        64        64        64 
dram[1]:        64        64        64        64        64        64        64        64        64        64        64        64        64        64        64        64 
dram[2]:        64        64        64        64        64        64        64        64        64        64        64        64        64        64        64        64 
dram[3]:        64        64        64        64        64        64        64        64        64        64        64        64        64        64        64        64 
dram[4]:        64        64        64        64        64        64        64        64        64        64        64        64        64        64        64        64 
maximum service time to same row:
dram[0]:   5765317   5486280   5844583   5546798   5747895   5184252   5662147   5588509   5628425   5623549   5437076   5679783   5483720   5569194   5185238   5716710 
dram[1]:   5765319   5486276   5844579   5546744   5747900   5155129   5662139   5588517   5628425   5623551   5437065   5679788   5476583   5569189   5075335   5716711 
dram[2]:   5760668   5490060   5844575   5537960   5748725   5311479   5659085   5599830   5627614   5636580   5411558   5681414   5476622   5567100   5041159   5701721 
dram[3]:   5760669   5490074   5844571   5559246   5765015   5201899   5659082   5599827   5625535   5638775   5411573   5681428   5472722   5567104   5337351   5701717 
dram[4]:   5747160   5463714   5851263   5630031   5769969   5321816   5457305   5601250   5620883   5625465   5404094   5725375   5596800   5571345   5313828   5629404 
average row accesses per activate:
dram[0]:  8.918605  8.186047  7.652174  9.643836 27.916666 12.679245 11.586206 10.707692 10.352942  8.564706 10.563380 15.333333 13.629630 13.851851 13.473684  9.253012 
dram[1]:  9.696202  8.380953  7.736264  8.911392 24.000000 13.714286 12.444445 10.707692 10.666667  7.663158 10.388889 15.659575 12.474576 13.357142 12.387096  8.439561 
dram[2]:  8.148936  8.481928  8.585366  8.186047 24.000000 12.218182 11.789474 11.830508  9.777778  8.666667 10.246575 14.720000 14.431373 12.229508 12.590164  8.439561 
dram[3]:  9.329268  8.585366  7.822222  8.585366 25.846153 12.000000 11.200000 11.633333 10.202899  8.413794 10.535212 14.153846 14.153846 13.321428 15.360000  8.258064 
dram[4]:  8.444445  8.091954  7.257732  8.860760 22.400000 12.000000 11.200000 11.633333  9.386666  8.318182 10.388889 14.153846 12.689655 12.931034 14.769231  8.827586 
average row locality = 57632/5390 = 10.692393
number of total memory accesses made:
dram[0]:         0         0         0         0         0         0         0         0         0         0         0         0         0         0         0         0 
dram[1]:         0         0         0         0         0         0         0         0         0         0         0         0         0         0         0         0 
dram[2]:         0         0         0         0         0         0         0         0         0         0         0         0         0         0         0         0 
dram[3]:         0         0         0         0         0         0         0         0         0         0         0         0         0         0         0         0 
dram[4]:         0         0         0         0         0         0         0         0         0         0         0         0         0         0         0         0 
total accesses: 0
min_bank_accesses = 0!
min_chip_accesses = 0!
number of total read accesses:
dram[0]:       485       448       448       448       414       416       416       440       448       460       462       448       448       460       480       480 
dram[1]:       484       448       448       448       416       416       416       440       448       460       460       448       448       460       480       480 
dram[2]:       484       448       448       448       416       416       416       442       448       460       460       448       448       458       480       480 
dram[3]:       483       448       448       448       416       416       416       442       448       462       460       448       448       458       480       480 
dram[4]:       480       448       448       444       416       416       416       442       448       462       460       448       448       462       480       480 
total reads: 36000
bank skew: 485/414 = 1.17
chip skew: 7201/7198 = 1.00
number of total write accesses:
dram[0]:       282       256       256       256       256       256       256       256       256       268       288       288       288       288       288       288 
dram[1]:       282       256       256       256       256       256       256       256       256       268       288       288       288       288       288       288 
dram[2]:       282       256       256       256       256       256       256       256       256       268       288       288       288       288       288       288 
dram[3]:       282       256       256       256       256       256       256       256       256       270       288       288       288       288       288       288 
dram[4]:       280       256       256       256       256       256       256       256       256       270       288       288       288       288       288       288 
total reads: 21632
bank skew: 288/256 = 1.12
chip skew: 4328/4326 = 1.00
average mf latency per bank:
dram[0]:       3056      3633      4124      2603      2542      3704      3160      2936      4108      3502      2427      3243      3122      2034      3267      3814
dram[1]:       3062      3636      4114      2595      2548      3713      3151      2940      4113      3492      2444      3260      3105      2018      3281      3804
dram[2]:       3066      3622      4124      2620      2520      3710      3178      2914      4101      3516      2451      3245      3128      2021      3243      3805
dram[3]:       3078      3604      4128      2651      2497      3707      3191      2890      4091      3527      2457      3239      3151      2018      3219      3808
dram[4]:       3092      3621      4123      2650      2502      3704      3174      2908      4091      3510      2453      3244      3146      2017      3230      3810
maximum mf latency per bank:
dram[0]:        282       263       238       223       326       278       226       290       349       223       292       269       223       385       382       220
dram[1]:        277       250       225       223       299       274       222       326       302       223       289       302       233       281       308       227
dram[2]:        232       225       226       222       325       274       223       390       237       222       295       318       222       302       328       227
dram[3]:        272       250       226       222       380       306       222       356       263       223       253       292       229       334       361       223
dram[4]:        234       222       233       223       374       231       223       301       249       227       347       298       231       358       293       221

Number of Memory Banks Accessed per Memory Operation per Warp (from 0):
0	0	0	0	0	0	0	0	0	0	0	0	0	0	0	0	0	0	0	0	0	0	0	0	0	0	0	0	0	0	0	0	0	0	0	0	0	0	0	0	0	0	0	0	0	0	0	0	0	0	0	0	0	0	0	0	0	0	0	0	0	0	0	0	0	0	0	0	0	0	0	0	0	0	0	0	0	0	0	0	
Average # of Memory Banks Accessed per Memory Operation per Warp=-nan

position of mrq chosen
0	0	0	0	0	0	0	0	0	0	0	0	0	0	0	0	

average position of mrq chosen = -nan
gpgpu_l2_write_miss = 0
gpgpu_l2_write_access = 0
gpgpu_l2_read_miss = 0
gpgpu_l2_read_access = 0
Cache L2_bank_000:
MSHR contents
MSHR: tag=0x802a2d80, atomic=0 1 entries : 0x926b1d0 :  mf: uid=531909059, sid01:w03, part=0, addr=0x802a2d80, load , size=128, unknown  status = IN_PARTITION_DRAM (40577341), 

DRAM[0]: 16 bks, busW=4 BL=8 CL=12, tRRD=2 tCCD=6, tRCD=12 tRAS=28 tRP=12 tRC=40
n_cmd=73039213 n_nop=73014060 n_act=1058 n_pre=1042 n_req=11527 n_rd=14401 n_write=8652 bw_util=0.0006312
n_activity=200805 dram_eff=0.2296
bk0: 969a 73033233i bk1: 896a 73033325i bk2: 896a 73033500i bk3: 896a 73033732i bk4: 828a 73032869i bk5: 832a 73033048i bk6: 832a 73032890i bk7: 880a 73032920i bk8: 896a 73031830i bk9: 920a 73032213i bk10: 924a 73032336i bk11: 896a 73033485i bk12: 896a 73030317i bk13: 920a 73030084i bk14: 960a 73029559i bk15: 960a 73005508i 
dram_util_bins: 0 0 0 0 0 0 0 0 0 0
dram_eff_bins: 0 0 0 0 0 0 0 0 0 0
mrqq: max=6 avg=0.0010473
Cache L2_bank_001:
MSHR contents

DRAM[1]: 16 bks, busW=4 BL=8 CL=12, tRRD=2 tCCD=6, tRCD=12 tRAS=28 tRP=12 tRC=40
n_cmd=73039213 n_nop=73014021 n_act=1078 n_pre=1062 n_req=11526 n_rd=14400 n_write=8652 bw_util=0.0006312
n_activity=201302 dram_eff=0.229
bk0: 968a 73033522i bk1: 896a 73033568i bk2: 896a 73033628i bk3: 896a 73033159i bk4: 832a 73032615i bk5: 832a 73032905i bk6: 832a 73033376i bk7: 880a 73033042i bk8: 896a 73032033i bk9: 920a 73032077i bk10: 920a 73032494i bk11: 896a 73033706i bk12: 896a 73030375i bk13: 920a 73029933i bk14: 960a 73029069i bk15: 960a 73005021i 
dram_util_bins: 0 0 0 0 0 0 0 0 0 0
dram_eff_bins: 0 0 0 0 0 0 0 0 0 0
mrqq: max=5 avg=0.00104752
Cache L2_bank_002:
MSHR contents

DRAM[2]: 16 bks, busW=4 BL=8 CL=12, tRRD=2 tCCD=6, tRCD=12 tRAS=28 tRP=12 tRC=40
n_cmd=73039213 n_nop=73014001 n_act=1088 n_pre=1072 n_req=11526 n_rd=14400 n_write=8652 bw_util=0.0006312
n_activity=201747 dram_eff=0.2285
bk0: 968a 73033417i bk1: 896a 73033151i bk2: 896a 73033459i bk3: 896a 73033420i bk4: 832a 73032821i bk5: 832a 73032879i bk6: 832a 73033003i bk7: 884a 73033234i bk8: 896a 73031713i bk9: 920a 73031868i bk10: 920a 73032030i bk11: 896a 73033818i bk12: 896a 73030486i bk13: 916a 73030436i bk14: 960a 73029500i bk15: 960a 73005065i 
dram_util_bins: 0 0 0 0 0 0 0 0 0 0
dram_eff_bins: 0 0 0 0 0 0 0 0 0 0
mrqq: max=5 avg=0.00104032
Cache L2_bank_003:
MSHR contents

DRAM[3]: 16 bks, busW=4 BL=8 CL=12, tRRD=2 tCCD=6, tRCD=12 tRAS=28 tRP=12 tRC=40
n_cmd=73039213 n_nop=73014033 n_act=1069 n_pre=1053 n_req=11529 n_rd=14402 n_write=8656 bw_util=0.0006314
n_activity=201480 dram_eff=0.2289
bk0: 966a 73033279i bk1: 896a 73033345i bk2: 896a 73033407i bk3: 896a 73033376i bk4: 832a 73032863i bk5: 832a 73033058i bk6: 832a 73033214i bk7: 884a 73033217i bk8: 896a 73031748i bk9: 924a 73031885i bk10: 920a 73032061i bk11: 896a 73033615i bk12: 896a 73030332i bk13: 916a 73030214i bk14: 960a 73029423i bk15: 960a 73005363i 
dram_util_bins: 0 0 0 0 0 0 0 0 0 0
dram_eff_bins: 0 0 0 0 0 0 0 0 0 0
mrqq: max=6 avg=0.00103146
Cache L2_bank_004:
MSHR contents
MSHR: tag=0x802a2c80, atomic=0 1 entries : 0x926aec0 :  mf: uid=531909058, sid01:w01, part=4, addr=0x802a2c80, load , size=128, unknown  status = IN_PARTITION_DRAM (40577341), 

DRAM[4]: 16 bks, busW=4 BL=8 CL=12, tRRD=2 tCCD=6, tRCD=12 tRAS=28 tRP=12 tRC=40
n_cmd=73039213 n_nop=73013979 n_act=1102 n_pre=1086 n_req=11524 n_rd=14394 n_write=8652 bw_util=0.0006311
n_activity=202669 dram_eff=0.2274
bk0: 958a 73033512i bk1: 896a 73033390i bk2: 896a 73033773i bk3: 888a 73033636i bk4: 832a 73032872i bk5: 832a 73032849i bk6: 832a 73033070i bk7: 884a 73033183i bk8: 896a 73031829i bk9: 924a 73031786i bk10: 920a 73032274i bk11: 896a 73033613i bk12: 896a 73030617i bk13: 924a 73029850i bk14: 960a 73029450i bk15: 960a 73004166i 
dram_util_bins: 0 0 0 0 0 0 0 0 0 0
dram_eff_bins: 0 0 0 0 0 0 0 0 0 0
mrqq: max=6 avg=0.00103644
Cache L2_bank_000:	Size = 131072 B (64 Set x 16-way x 128 byte line)
		Access = 334666, Miss = 7201 (0.0215), PendingHit = 713 (0.00213)
Cache L2_bank_001:	Size = 131072 B (64 Set x 16-way x 128 byte line)
		Access = 334624, Miss = 7200 (0.0215), PendingHit = 729 (0.00218)
Cache L2_bank_002:	Size = 131072 B (64 Set x 16-way x 128 byte line)
		Access = 334646, Miss = 7200 (0.0215), PendingHit = 706 (0.00211)
Cache L2_bank_003:	Size = 131072 B (64 Set x 16-way x 128 byte line)
		Access = 334620, Miss = 7201 (0.0215), PendingHit = 694 (0.00207)
Cache L2_bank_004:	Size = 131072 B (64 Set x 16-way x 128 byte line)
		Access = 334635, Miss = 7198 (0.0215), PendingHit = 726 (0.00217)
L2 Cache Total Miss Rate = 0.022

icnt_total_pkts_mem_to_simt=8277579
icnt_total_pkts_simt_to_mem=1759719

LD_mem_lat_dist  0 0 0 0 0 0 0 0 0 0 0 0 0 0 0 0 0 0 0 0 0 0 0 0 0 0 0
ST_mem_lat_dist  0 0 0 0 0 0 0 0 0 0 0 0 0 0 0 0 0 0 0 0 0 0 0 0 0 0 0
Traffic 0 Stat
%=================================
% Average latency = 1.06803
% Accepted packets = 0 at node 0 (avg = 0.000858496)
lat(3) = 1.06803;
thru(3,:) = [ 0 0 0 0 0 0 0 0 0 0 0 0 0 0 0.00394889 0.00394844 0.00394887 0.00394927 0.00394994 0 0 0 0 ];
% latency change    = 5.39845
% throughput change = 4.7274
Traffic 1 Stat
%=================================
% Average latency = 6.81762
% Accepted packets = 0 at node 14 (avg = 0.00403943)
lat(4) = 6.81762;
thru(4,:) = [ 0.00694481 0.00657438 0.00651008 0.00619776 0.00659853 0.00636425 0.00664998 0.00689999 0.00681354 0.00700299 0.00653754 0.00660909 0.00668852 0.00651553 0 0 0 0 0 0 0 0 0 ];
% latency change    = 0.843343
% throughput change = 0.787471
----------------------------Interconnect-DETAILS---------------------------------=======Traffic[0]class0 ======
Traffic[0]class0Overall average latency = 1.07534 (2 samples)
Traffic[0]class0Overall average accepted rate = 0.00095204 (2 samples)
Traffic[0]class0Overall min accepted rate = 0 (2 samples)
traffic_manager/latency_stat_0_freq = [ 0 822568 3722 121 83 7389 1117 368 1563 378 91 2 1 0 0 0 0 0 0 1 0 0 0 1 0 0 0 0 0 2 0 2 0 0 0 0 0 0 0 3 0 0 0 0 0 5 0 1 0 0 0 0 0 0 0 1 0 0 0 0 0 0 0 0 0 0 0 0 0 0 0 0 0 0 0 0 0 0 0 0 0 0 0 0 0 0 0 0 0 0 0 0 0 0 0 0 0 0 0 0 0 0 0 0 0 0 0 0 0 0 0 0 0 0 0 0 0 0 0 0 0 0 0 0 0 0 0 0 0 0 0 0 0 0 0 0 0 0 0 0 0 0 0 0 0 0 0 0 0 0 0 0 0 0 0 0 0 0 0 0 0 0 0 0 0 0 0 0 0 0 0 0 0 0 0 0 0 0 0 0 0 0 0 0 0 0 0 0 0 0 0 0 0 0 0 0 0 0 0 0 0 0 0 0 0 0 0 0 0 0 0 0 0 0 0 0 0 0 0 0 0 0 0 0 0 0 0 0 0 0 0 0 0 0 0 0 0 0 0 0 0 0 0 0 0 0 0 0 0 0 0 0 0 0 0 0 0 0 0 0 0 0 0 0 0 0 0 0 0 0 0 0 0 0 0 0 0 0 0 0 0 0 0 0 0 0 0 0 0 0 0 0 0 0 0 0 0 0 0 0 0 0 0 0 0 0 0 0 0 0 0 0 0 0 0 0 0 0 0 0 0 0 0 0 0 0 0 0 0 0 0 0 0 0 0 0 0 0 0 0 0 0 0 0 0 0 0 0 0 0 0 0 0 0 0 0 0 0 0 0 0 0 0 0 0 0 0 0 0 0 0 0 0 0 0 0 0 0 0 0 0 0 0 0 0 0 0 0 0 0 0 0 0 0 0 0 0 0 0 0 0 0 0 0 0 0 0 0 0 0 0 0 0 0 0 0 0 0 0 0 0 0 0 0 0 0 0 0 0 0 0 0 0 0 0 0 0 0 0 0 0 0 0 0 0 0 0 0 0 0 0 0 0 0 0 0 0 0 0 0 0 0 0 0 0 0 0 0 0 0 0 0 0 0 0 0 0 0 0 0 0 0 0 0 0 0 0 0 0 0 0 0 0 0 0 0 0 0 0 0 0 0 0 0 0 0 0 0 0 0 0 0 0 0 0 0 0 0 0 0 0 0 0 0 0 0 0 0 0 0 0 0 0 0 0 0 0 0 0 0 0 0 0 0 0 0 0 0 0 0 0 0 0 0 0 0 0 0 0 0 0 0 0 0 0 0 0 0 0 0 0 0 0 0 0 0 0 0 0 0 0 0 0 0 0 0 0 0 0 0 0 0 0 0 0 0 0 0 0 0 0 0 0 0 0 0 0 0 0 0 0 0 0 0 0 0 0 0 0 0 0 0 0 0 0 0 0 0 0 0 0 0 0 0 0 0 0 0 0 0 0 0 0 0 0 0 0 0 0 0 0 0 0 0 0 0 0 0 0 0 0 0 0 0 0 0 0 0 0 0 0 0 0 0 0 0 0 0 0 0 0 0 0 0 0 0 0 0 0 0 0 0 0 0 0 0 0 0 0 0 0 0 0 0 0 0 0 0 0 0 0 0 0 0 0 0 0 0 0 0 0 0 0 0 0 0 0 0 0 0 0 0 0 0 0 0 0 0 0 0 0 0 0 0 0 0 0 0 0 0 0 0 0 0 0 0 0 0 0 0 0 0 0 0 0 0 0 0 0 0 0 0 0 0 0 0 0 0 0 0 0 0 0 0 0 0 0 0 0 0 0 0 0 0 0 0 0 0 0 0 0 0 0 0 0 0 0 0 0 0 0 0 0 0 0 0 0 0 0 0 0 0 0 0 0 0 0 0 0 0 0 0 0 0 0 0 0 0 0 0 0 0 0 0 0 0 0 0 0 0 0 0 0 0 0 0 0 0 0 0 0 0 0 0 0 0 0 0 0 0 0 0 0 0 0 0 0 0 0 0 0 0 0 0 0 0 0 0 0 0 0 0 0 0 0 0 0 0 0 0 0 0 0 0 0 0 0 0 0 0 0 0 0 0 0 0 0 0 0 0 0 0 0 0 0 0 0 0 0 0 0 0 0 0 0 0 0 0 0 0 0 0 0 0 0 0 0 0 0 0 0 0 0 0 0 0 0 0 0 0 0 0 0 0 0 0 0 0 0 0 0 0 0 0 0 0 0 0 0 0 0 0 0 0 0 0 0 0 0 0 0 0 0 0 0 0 0 0 0 0 ];
Traffic[0]class1Average hops = 1 (1673191 samples)
traffic_manager/hop_stats_freq = [ 0 1673191 0 0 0 0 0 0 0 0 0 0 0 0 0 0 0 0 0 0 ];
=======Traffic[1]class0 ======
Traffic[1]class0Overall average latency = 6.82567 (2 samples)
Traffic[1]class0Overall average accepted rate = 0.00447819 (2 samples)
Traffic[1]class0Overall min accepted rate = 0 (2 samples)
traffic_manager/latency_stat_0_freq = [ 0 10485 85 60 54 391899 8124 11323 341497 18283 6681 6240 15466 7198 14232 749 2525 585 638 430 283 164 191 40 64 37 44 20 6 6 2 4 2 0 1 0 1 0 0 0 0 0 0 0 0 0 0 0 0 0 0 0 0 0 0 0 0 0 0 0 0 0 0 0 0 0 0 0 0 0 0 0 0 0 0 0 0 0 0 0 0 0 0 0 0 0 0 0 0 0 0 0 0 0 0 0 0 0 0 0 0 0 0 0 0 0 0 0 0 0 0 0 0 0 0 0 0 0 0 0 0 0 0 0 0 0 0 0 0 0 0 0 0 0 0 0 0 0 0 0 0 0 0 0 0 0 0 0 0 0 0 0 0 0 0 0 0 0 0 0 0 0 0 0 0 0 0 0 0 0 0 0 0 0 0 0 0 0 0 0 0 0 0 0 0 0 0 0 0 0 0 0 0 0 0 0 0 0 0 0 0 0 0 0 0 0 0 0 0 0 0 0 0 0 0 0 0 0 0 0 0 0 0 0 0 0 0 0 0 0 0 0 0 0 0 0 0 0 0 0 0 0 0 0 0 0 0 0 0 0 0 0 0 0 0 0 0 0 0 0 0 0 0 0 0 0 0 0 0 0 0 0 0 0 0 0 0 0 0 0 0 0 0 0 0 0 0 0 0 0 0 0 0 0 0 0 0 0 0 0 0 0 0 0 0 0 0 0 0 0 0 0 0 0 0 0 0 0 0 0 0 0 0 0 0 0 0 0 0 0 0 0 0 0 0 0 0 0 0 0 0 0 0 0 0 0 0 0 0 0 0 0 0 0 0 0 0 0 0 0 0 0 0 0 0 0 0 0 0 0 0 0 0 0 0 0 0 0 0 0 0 0 0 0 0 0 0 0 0 0 0 0 0 0 0 0 0 0 0 0 0 0 0 0 0 0 0 0 0 0 0 0 0 0 0 0 0 0 0 0 0 0 0 0 0 0 0 0 0 0 0 0 0 0 0 0 0 0 0 0 0 0 0 0 0 0 0 0 0 0 0 0 0 0 0 0 0 0 0 0 0 0 0 0 0 0 0 0 0 0 0 0 0 0 0 0 0 0 0 0 0 0 0 0 0 0 0 0 0 0 0 0 0 0 0 0 0 0 0 0 0 0 0 0 0 0 0 0 0 0 0 0 0 0 0 0 0 0 0 0 0 0 0 0 0 0 0 0 0 0 0 0 0 0 0 0 0 0 0 0 0 0 0 0 0 0 0 0 0 0 0 0 0 0 0 0 0 0 0 0 0 0 0 0 0 0 0 0 0 0 0 0 0 0 0 0 0 0 0 0 0 0 0 0 0 0 0 0 0 0 0 0 0 0 0 0 0 0 0 0 0 0 0 0 0 0 0 0 0 0 0 0 0 0 0 0 0 0 0 0 0 0 0 0 0 0 0 0 0 0 0 0 0 0 0 0 0 0 0 0 0 0 0 0 0 0 0 0 0 0 0 0 0 0 0 0 0 0 0 0 0 0 0 0 0 0 0 0 0 0 0 0 0 0 0 0 0 0 0 0 0 0 0 0 0 0 0 0 0 0 0 0 0 0 0 0 0 0 0 0 0 0 0 0 0 0 0 0 0 0 0 0 0 0 0 0 0 0 0 0 0 0 0 0 0 0 0 0 0 0 0 0 0 0 0 0 0 0 0 0 0 0 0 0 0 0 0 0 0 0 0 0 0 0 0 0 0 0 0 0 0 0 0 0 0 0 0 0 0 0 0 0 0 0 0 0 0 0 0 0 0 0 0 0 0 0 0 0 0 0 0 0 0 0 0 0 0 0 0 0 0 0 0 0 0 0 0 0 0 0 0 0 0 0 0 0 0 0 0 0 0 0 0 0 0 0 0 0 0 0 0 0 0 0 0 0 0 0 0 0 0 0 0 0 0 0 0 0 0 0 0 0 0 0 0 0 0 0 0 0 0 0 0 0 0 0 0 0 0 0 0 0 0 0 0 0 0 0 0 0 0 0 0 0 0 0 0 0 0 0 0 0 0 0 0 0 0 0 0 0 0 0 0 0 0 0 0 0 0 0 0 0 0 0 0 0 0 0 0 0 0 0 0 0 0 0 0 0 0 0 0 0 0 0 0 0 0 0 0 0 0 0 0 0 0 0 0 0 0 0 0 0 0 0 0 0 0 0 0 0 0 0 0 0 0 0 0 0 0 0 0 0 0 0 0 0 0 0 0 0 0 0 0 0 0 0 0 0 0 0 0 0 0 0 0 0 0 0 0 0 ];
Traffic[1]class1Average hops = 1 (1673191 samples)
traffic_manager/hop_stats_freq = [ 0 1673191 0 0 0 0 0 0 0 0 0 0 0 0 0 0 0 0 0 0 ];
----------------------------END-of-Interconnect-DETAILS-------------------------

gpgpu_simulation_time = 0 days, 17 hrs, 31 min, 27 sec (63087 sec)
gpgpu_simulation_rate = 425975 (inst/sec)
gpgpu_simulation_rate = 643 (cycle/sec)
Finished CUDA kernel calls                        
computing extra atoms on CPU


