

        *** GPGPU-Sim Simulator Version 3.2.1  [build 15629] ***


               1=functional simulation only, 0=detailed performance simulator)
GPGPU-Sim: Configuration options:

-network_mode                           1 # Interconnection network mode
-inter_config_file   config_fermi_islip.icnt # Interconnection network config file
-gpgpu_ptx_use_cuobjdump                    1 # Use cuobjdump to extract ptx and sass from binaries
-gpgpu_experimental_lib_support                    0 # Try to extract code from cuda libraries [Broken because of unknown cudaGetExportTable]
-gpgpu_ptx_convert_to_ptxplus                    0 # Convert SASS (native ISA) to ptxplus and run ptxplus
-gpgpu_ptx_force_max_capability                   20 # Force maximum compute capability
-gpgpu_ptx_inst_debug_to_file                    0 # Dump executed instructions' debug information to file
-gpgpu_ptx_inst_debug_file       inst_debug.txt # Executed instructions' debug output file
-gpgpu_ptx_inst_debug_thread_uid                    1 # Thread UID for executed instructions' debug output
-gpgpu_simd_model                       1 # 1 = post-dominator
-gpgpu_shader_core_pipeline              1536:32 # shader core pipeline config, i.e., {<nthread>:<warpsize>}
-gpgpu_tex_cache:l1  4:128:24,L:R:m:N,F:128:4,128:2 # per-shader L1 texture cache  (READ-ONLY) config  {<nsets>:<bsize>:<assoc>,<rep>:<wr>:<alloc>:<wr_alloc>,<mshr>:<N>:<merge>,<mq>:<rf>}
-gpgpu_const_cache:l1 64:64:2,L:R:f:N,A:2:32,4 # per-shader L1 constant memory cache  (READ-ONLY) config  {<nsets>:<bsize>:<assoc>,<rep>:<wr>:<alloc>:<wr_alloc>,<mshr>:<N>:<merge>,<mq>} 
-gpgpu_cache:il1     4:128:4,L:R:f:N,A:2:32,4 # shader L1 instruction cache config  {<nsets>:<bsize>:<assoc>,<rep>:<wr>:<alloc>:<wr_alloc>,<mshr>:<N>:<merge>,<mq>} 
-gpgpu_cache:dl1     32:128:4,L:L:m:N,A:32:8,8 # per-shader L1 data cache config  {<nsets>:<bsize>:<assoc>,<rep>:<wr>:<alloc>:<wr_alloc>,<mshr>:<N>:<merge>,<mq> | none}
-gpgpu_perfect_mem                      0 # enable perfect memory mode (no cache miss)
-n_regfile_gating_group                    4 # group of lanes that should be read/written together)
-gpgpu_clock_gated_reg_file                    0 # enable clock gated reg file for power calculations
-gpgpu_clock_gated_lanes                    0 # enable clock gated lanes for power calculations
-gpgpu_shader_registers                32768 # Number of registers per shader core. Limits number of concurrent CTAs. (default 8192)
-gpgpu_shader_cta                       8 # Maximum number of concurrent CTAs in shader (default 8)
-gpgpu_n_clusters                      14 # number of processing clusters
-gpgpu_n_cores_per_cluster                    1 # number of simd cores per cluster
-gpgpu_n_cluster_ejection_buffer_size                    8 # number of packets in ejection buffer
-gpgpu_n_ldst_response_buffer_size                    2 # number of response packets in ld/st unit ejection buffer
-gpgpu_shmem_size                   16384 # Size of shared memory per shader core (default 16kB)
-gpgpu_shmem_num_banks                   32 # Number of banks in the shared memory in each shader core (default 16)
-gpgpu_shmem_limited_broadcast                    0 # Limit shared memory to do one broadcast per cycle (default on)
-gpgpu_shmem_warp_parts                    1 # Number of portions a warp is divided into for shared memory bank conflict check 
-gpgpu_warpdistro_shader                   -1 # Specify which shader core to collect the warp size distribution from
-gpgpu_warp_issue_shader                    0 # Specify which shader core to collect the warp issue distribution from
-gpgpu_local_mem_map                    1 # Mapping from local memory space address to simulated GPU physical address space (default = enabled)
-gpgpu_num_reg_banks                   16 # Number of register banks (default = 8)
-gpgpu_reg_bank_use_warp_id                    0 # Use warp ID in mapping registers to banks (default = off)
-gpgpu_operand_collector_num_units_sp                    6 # number of collector units (default = 4)
-gpgpu_operand_collector_num_units_sfu                    8 # number of collector units (default = 4)
-gpgpu_operand_collector_num_units_mem                    2 # number of collector units (default = 2)
-gpgpu_operand_collector_num_units_gen                    0 # number of collector units (default = 0)
-gpgpu_operand_collector_num_in_ports_sp                    2 # number of collector unit in ports (default = 1)
-gpgpu_operand_collector_num_in_ports_sfu                    1 # number of collector unit in ports (default = 1)
-gpgpu_operand_collector_num_in_ports_mem                    1 # number of collector unit in ports (default = 1)
-gpgpu_operand_collector_num_in_ports_gen                    0 # number of collector unit in ports (default = 0)
-gpgpu_operand_collector_num_out_ports_sp                    2 # number of collector unit in ports (default = 1)
-gpgpu_operand_collector_num_out_ports_sfu                    1 # number of collector unit in ports (default = 1)
-gpgpu_operand_collector_num_out_ports_mem                    1 # number of collector unit in ports (default = 1)
-gpgpu_operand_collector_num_out_ports_gen                    0 # number of collector unit in ports (default = 0)
-gpgpu_coalesce_arch                   13 # Coalescing arch (default = 13, anything else is off for now)
-gpgpu_num_sched_per_core                    2 # Number of warp schedulers per core
-gpgpu_max_insn_issue_per_warp                    1 # Max number of instructions that can be issued per warp in one cycle by scheduler
-gpgpu_simt_core_sim_order                    1 # Select the simulation order of cores in a cluster (0=Fix, 1=Round-Robin)
-gpgpu_pipeline_widths        2,1,1,2,1,1,2 # Pipeline widths ID_OC_SP,ID_OC_SFU,ID_OC_MEM,OC_EX_SP,OC_EX_SFU,OC_EX_MEM,EX_WB
-gpgpu_num_sp_units                     2 # Number of SP units (default=1)
-gpgpu_num_sfu_units                    1 # Number of SF units (default=1)
-gpgpu_num_mem_units                    1 # Number if ldst units (default=1) WARNING: not hooked up to anything
-gpgpu_scheduler                      lrr # Scheduler configuration: < lrr | gto | two_level_active > If two_level_active:<num_active_warps>:<inner_prioritization>:<outer_prioritization>For complete list of prioritization values see shader.h enum scheduler_prioritization_typeDefault: gto
-gpgpu_dram_scheduler                    1 # 0 = fifo, 1 = FR-FCFS (defaul)
-gpgpu_dram_partition_queues              8:8:8:8 # i2$:$2d:d2$:$2i
-l2_ideal                               0 # Use a ideal L2 cache that always hit
-gpgpu_cache:dl2     64:128:16,L:B:m:W,A:32:4,4 # unified banked L2 data cache config  {<nsets>:<bsize>:<assoc>,<rep>:<wr>:<alloc>:<wr_alloc>,<mshr>:<N>:<merge>,<mq>}
-gpgpu_cache:dl2_texture_only                    0 # L2 cache used for texture only
-gpgpu_n_mem                            5 # number of memory modules (e.g. memory controllers) in gpu
-gpgpu_n_mem_per_ctrlr                    2 # number of memory chips per memory controller
-gpgpu_memlatency_stat                   14 # track and display latency statistics 0x2 enables MC, 0x4 enables queue logs
-gpgpu_frfcfs_dram_sched_queue_size                   16 # 0 = unlimited (default); # entries per chip
-gpgpu_dram_return_queue_size                    0 # 0 = unlimited (default); # entries per chip
-gpgpu_dram_buswidth                    4 # default = 4 bytes (8 bytes per cycle at DDR)
-gpgpu_dram_burst_length                    8 # Burst length of each DRAM request (default = 4 data bus cycle)
-dram_data_command_freq_ratio                    4 # Frequency ratio between DRAM data bus and command bus (default = 2 times, i.e. DDR)
-gpgpu_dram_timing_opt nbk=16:CCD=2:RRD=6:RCD=12:RAS=28:RP=12:RC=40: CL=12:WL=4:CDLR=5:WR=12:nbkgrp=4:CCDL=3:RTPL=2 # DRAM timing parameters = {nbk:tCCD:tRRD:tRCD:tRAS:tRP:tRC:CL:WL:tCDLR:tWR:nbkgrp:tCCDL:tRTPL}
-rop_latency                          120 # ROP queue latency (default 85)
-dram_latency                         100 # DRAM latency (default 30)
-gpgpu_mem_addr_mapping dramid@8;00000000.00000000.00000000.00000000.0000RRRR.RRRRRRRR.BBBBCCCC.CCSSSSSS # mapping memory address to dram model {dramid@<start bit>;<memory address map>}
-gpgpu_mem_addr_test                    0 # run sweep test to check address mapping for aliased address
-gpgpu_mem_address_mask                    1 # 0 = old addressing mask, 1 = new addressing mask, 2 = new add. mask + flipped bank sel and chip sel bits
-gpuwattch_xml_file         gpuwattch.xml # GPUWattch XML file
-power_simulation_enabled                    1 # Turn on power simulator (1=On, 0=Off)
-power_per_cycle_dump                    0 # Dump detailed power output each cycle
-power_trace_enabled                    1 # produce a file for the power trace (1=On, 0=Off)
-power_trace_zlevel                     6 # Compression level of the power trace output log (0=no comp, 9=highest)
-steady_power_levels_enabled                    0 # produce a file for the steady power levels (1=On, 0=Off)
-steady_state_definition                  8:4 # allowed deviation:number of samples
-gpgpu_max_cycle                        0 # terminates gpu simulation early (0 = no limit)
-gpgpu_max_insn                         0 # terminates gpu simulation early (0 = no limit)
-gpgpu_max_cta                          0 # terminates gpu simulation early (0 = no limit)
-gpgpu_runtime_stat                   500 # display runtime statistics such as dram utilization {<freq>:<flag>}
-gpgpu_flush_l1_cache                    0 # Flush L1 cache at the end of each kernel call
-gpgpu_flush_l2_cache                    0 # Flush L2 cache at the end of each kernel call
-gpgpu_deadlock_detect                    1 # Stop the simulation at deadlock (1=on (default), 0=off)
-gpgpu_ptx_instruction_classification                    0 # if enabled will classify ptx instruction types per kernel (Max 255 kernels now)
-gpgpu_ptx_sim_mode                     0 # Select between Performance (default) or Functional simulation (1)
-gpgpu_clock_domains 600.0:1200.0:600.0:900.0 # Clock Domain Frequencies in MhZ {<Core Clock>:<ICNT Clock>:<L2 Clock>:<DRAM Clock>}
-gpgpu_max_concurrent_kernel                    8 # maximum kernels that can run concurrently on GPU
-gpgpu_cflog_interval                    0 # Interval between each snapshot in control flow logger
-visualizer_enabled                     0 # Turn on visualizer output (1=On, 0=Off)
-visualizer_outputfile                 NULL # Specifies the output log file for visualizer
-visualizer_zlevel                      6 # Compression level of the visualizer output log (0=no comp, 9=highest)
-trace_enabled                          0 # Turn on traces
-trace_components                    none # comma seperated list of traces to enable. Complete list found in trace_streams.tup. Default none
-trace_sampling_core                    0 # The core which is printed using CORE_DPRINTF. Default 0
-enable_ptx_file_line_stats                    1 # Turn on PTX source line statistic profiling. (1 = On)
-ptx_line_stats_filename gpgpu_inst_stats.txt # Output file for PTX source line statistics.
-save_embedded_ptx                      0 # saves ptx files embedded in binary as <n>.ptx
-keep                                   0 # keep intermediate files created by GPGPU-Sim when interfacing with external programs
-gpgpu_ptx_save_converted_ptxplus                    0 # Saved converted ptxplus to a file
-ptx_opcode_latency_int         4,13,4,5,145 # Opcode latencies for integers <ADD,MAX,MUL,MAD,DIV>Default 1,1,19,25,145
-ptx_opcode_latency_fp          4,13,4,5,39 # Opcode latencies for single precision floating points <ADD,MAX,MUL,MAD,DIV>Default 1,1,1,1,30
-ptx_opcode_latency_dp         8,19,8,8,330 # Opcode latencies for double precision floating points <ADD,MAX,MUL,MAD,DIV>Default 8,8,8,8,335
-ptx_opcode_initiation_int            1,2,2,1,8 # Opcode initiation intervals for integers <ADD,MAX,MUL,MAD,DIV>Default 1,1,4,4,32
-ptx_opcode_initiation_fp            1,2,1,1,4 # Opcode initiation intervals for single precision floating points <ADD,MAX,MUL,MAD,DIV>Default263174e19baf50f0bc7bc408d516d0b7  /tmp/tmp.qlPaHCX9BE/cutcp__SIZE1_1
 1,1,1,1,5
-ptx_opcode_initiation_dp         8,16,8,8,130 # Opcode initiation intervals for double precision floating points <ADD,MAX,MUL,MAD,DIV>Default 8,8,8,8,130
DRAM Timing Options:
nbk                                    16 # number of banks
CCD                                     2 # column to column delay
RRD                                     6 # minimal delay between activation of rows in different banks
RCD                                    12 # row to column delay
RAS                                    28 # time needed to activate row
RP                                     12 # time needed to precharge (deactivate) row
RC                                     40 # row cycle time
CDLR                                    5 # switching from write to read (changes tWTR)
WR                                     12 # last data-in to row precharge
CL                                     12 # CAS latency
WL                                      4 # Write latency
nbkgrp                                  4 # number of bank groups
CCDL                                    3 # column to column delay between accesses to different bank groups
RTPL                                    2 # read to precharge delay between accesses to different bank groups
addr_dec_mask[CHIP]  = 0000000000000000 	high:64 low:0
addr_dec_mask[BK]    = 000000000000f000 	high:16 low:12
addr_dec_mask[ROW]   = 000000000fff0000 	high:28 low:16
addr_dec_mask[COL]   = 0000000000000fff 	high:12 low:0
addr_dec_mask[BURST] = 000000000000003f 	high:6 low:0
*** Initializing Memory Statistics ***
self exe links to: /tmp/tmp.qlPaHCX9BE/cutcp__SIZE1_1
Running md5sum using "md5sum /tmp/tmp.qlPaHCX9BE/cutcp__SIZE1_1 "
Running cuobjdump using "$CUDA_INSTALL_PATH/bin/cuobjdump -ptx -elf -sass /tmp/tmp.qlPaHCX9BE/cutcp__SIZE1_1 > _cuobjdump_complete_output_CJtrJT"
Parsing file _cuobjdump_complete_output_CJtrJT
######### cuobjdump parser ########
## Adding new section PTX
Adding ptx filename: _cuobjdump_1.ptx
Adding arch: sm_13
Adding identifier: benchmarks/cutcp/cutcp.cu
## Adding new section ELF
Adding arch: sm_13
Adding identifier: benchmarks/cutcp/cutcp.cu
Done parsing!!!
Adding _cuobjdump_1.ptx with cubin handle 1
Running: cat _ptx_wk0wC2 | sed 's/.version 1.5/.version 1.4/' | sed 's/, texmode_independent//' | sed 's/\(\.extern \.const\[1\] .b8 \w\+\)\[\]/\1\[1\]/' | sed 's/const\[.\]/const\[0\]/g' > _ptx2_M8NDvb
GPGPU-Sim PTX registering constant NbrListLen (4 bytes) to name mapping
GPGPU-Sim PTX registering constant NbrList (15972 bytes) to name mapping
read 96603 atoms from file '/home/cnugteren/software/parboil-2.5/datasets/cutcp/large/input/watbox.sl100.pqr'
extent of domain is:
  minimum -49.998 -49.997 -49.996
  maximum 50 49.99 49.971
padding domain by 0.5 Angstroms
domain lengths are 100.998 by 100.987 by 100.967

Invoking CUDA kernel on 2 region planes...
  computing plane 0
kernel '_Z29cuda_cutoff_potential_latticeiiP6float4fffPfi' transfer to GPU hardware scheduler
kernel_name = _Z29cuda_cutoff_potential_latticeiiP6float4fffPfi 
kernel_launch_uid = 1 
gpu_sim_cycle = 18320401
gpu_sim_insn = 12113348856
gpu_ipc =     661.1945
gpu_tot_sim_cycle = 18320401
gpu_tot_sim_insn = 12113348856
gpu_tot_ipc =     661.1945
gpu_tot_issued_cta = 0
gpu_stall_dramfull = 15928
gpu_stall_icnt2sh    = 49251
gpu_total_sim_rate=492212
Cache L1D_000:	Size = 16384 B (32 Set x 4-way x 128 byte line)
		Access = 129310, Miss = 61524 (0.476), PendingHit = 299 (0.00231)
Cache L1D_001:	Size = 16384 B (32 Set x 4-way x 128 byte line)
		Access = 129980, Miss = 58472 (0.45), PendingHit = 1418 (0.0109)
Cache L1D_002:	Size = 16384 B (32 Set x 4-way x 128 byte line)
		Access = 129310, Miss = 56230 (0.435), PendingHit = 1161 (0.00898)
Cache L1D_003:	Size = 16384 B (32 Set x 4-way x 128 byte line)
		Access = 129310, Miss = 55988 (0.433), PendingHit = 1105 (0.00855)
Cache L1D_004:	Size = 16384 B (32 Set x 4-way x 128 byte line)
		Access = 129310, Miss = 61597 (0.476), PendingHit = 95 (0.000735)
Cache L1D_005:	Size = 16384 B (32 Set x 4-way x 128 byte line)
		Access = 129310, Miss = 60289 (0.466), PendingHit = 319 (0.00247)
Cache L1D_006:	Size = 16384 B (32 Set x 4-way x 128 byte line)
		Access = 129980, Miss = 58316 (0.449), PendingHit = 1568 (0.0121)
Cache L1D_007:	Size = 16384 B (32 Set x 4-way x 128 byte line)
		Access = 128640, Miss = 57975 (0.451), PendingHit = 621 (0.00483)
Cache L1D_008:	Size = 16384 B (32 Set x 4-way x 128 byte line)
		Access = 128640, Miss = 57266 (0.445), PendingHit = 747 (0.00581)
Cache L1D_009:	Size = 16384 B (32 Set x 4-way x 128 byte line)
		Access = 129980, Miss = 60675 (0.467), PendingHit = 404 (0.00311)
Cache L1D_010:	Size = 16384 B (32 Set x 4-way x 128 byte line)
		Access = 129310, Miss = 61220 (0.473), PendingHit = 574 (0.00444)
Cache L1D_011:	Size = 16384 B (32 Set x 4-way x 128 byte line)
		Access = 130650, Miss = 59118 (0.452), PendingHit = 716 (0.00548)
Cache L1D_012:	Size = 16384 B (32 Set x 4-way x 128 byte line)
		Access = 128640, Miss = 57519 (0.447), PendingHit = 1507 (0.0117)
Cache L1D_013:	Size = 16384 B (32 Set x 4-way x 128 byte line)
		Access = 129310, Miss = 58953 (0.456), PendingHit = 392 (0.00303)
total_dl1_misses=825142
total_dl1_accesses=1811680
total_dl1_miss_rate= 0.455457
Shader 0 dynamic_warp_id issue ditsribution:
dynamic_warp_id:
0, 1, 2, 3, 4, 5, 6, 7, 8, 9, 10, 11, 12, 13, 14, 15, 16, 17, 18, 19, 20, 21, 22, 23, 24, 25, 26, 27, 28, 29, 30, 31, 32, 33, 34, 35, 36, 37, 38, 39, 40, 41, 42, 43, 44, 45, 46, 47, 48, 49, 50, 51, 52, 53, 54, 55, 56, 57, 58, 59, 60, 61, 62, 63, 64, 65, 66, 67, 68, 69, 70, 71, 72, 73, 74, 75, 76, 77, 78, 79, 80, 81, 82, 83, 84, 85, 86, 87, 88, 89, 90, 91, 92, 93, 94, 95, 96, 97, 98, 99, 100, 101, 102, 103, 104, 105, 106, 107, 108, 109, 110, 111, 112, 113, 114, 115, 116, 117, 118, 119, 120, 121, 122, 123, 124, 125, 126, 127, 128, 129, 130, 131, 132, 133, 134, 135, 136, 137, 138, 139, 140, 141, 142, 143, 144, 145, 146, 147, 148, 149, 150, 151, 152, 153, 154, 155, 156, 157, 158, 159, 160, 161, 162, 163, 164, 165, 166, 167, 168, 169, 170, 171, 172, 173, 174, 175, 176, 177, 178, 179, 180, 181, 182, 183, 184, 185, 186, 187, 188, 189, 190, 191, 192, 193, 194, 195, 196, 197, 198, 199, 200, 201, 202, 203, 204, 205, 206, 207, 208, 209, 210, 211, 212, 213, 214, 215, 216, 217, 218, 219, 220, 221, 222, 223, 224, 225, 226, 227, 228, 229, 230, 231, 232, 233, 234, 235, 236, 237, 238, 239, 240, 241, 242, 243, 244, 245, 246, 247, 248, 249, 250, 251, 252, 253, 254, 255, 256, 257, 258, 259, 260, 261, 262, 263, 264, 265, 266, 267, 268, 269, 270, 271, 272, 273, 274, 275, 276, 277, 278, 279, 280, 281, 282, 283, 284, 285, 286, 287, 288, 289, 290, 291, 292, 293, 294, 295, 296, 297, 298, 299, 300, 301, 302, 303, 304, 305, 306, 307, 308, 309, 310, 311, 312, 313, 314, 315, 316, 317, 318, 319, 320, 321, 322, 323, 324, 325, 326, 327, 328, 329, 330, 331, 332, 333, 334, 335, 336, 337, 338, 339, 340, 341, 342, 343, 344, 345, 346, 347, 348, 349, 350, 351, 352, 353, 354, 355, 356, 357, 358, 359, 360, 361, 362, 363, 364, 365, 366, 367, 368, 369, 370, 371, 372, 373, 374, 375, 376, 377, 378, 379, 380, 381, 382, 383, 384, 385, 386, 387, 388, 389, 390, 391, 392, 393, 394, 395, 396, 397, 398, 399, 400, 401, 402, 403, 404, 405, 406, 407, 408, 409, 410, 411, 412, 413, 414, 415, 416, 417, 418, 419, 420, 421, 422, 423, 424, 425, 426, 427, 428, 429, 430, 431, 432, 433, 434, 435, 436, 437, 438, 439, 440, 441, 442, 443, 444, 445, 446, 447, 448, 449, 450, 451, 452, 453, 454, 455, 456, 457, 458, 459, 460, 461, 462, 463, 464, 465, 466, 467, 468, 469, 470, 471, 472, 473, 474, 475, 476, 477, 478, 479, 480, 481, 482, 483, 484, 485, 486, 487, 488, 489, 490, 491, 492, 493, 494, 495, 496, 497, 498, 499, 500, 501, 502, 503, 504, 505, 506, 507, 508, 509, 510, 511, 512, 513, 514, 515, 516, 517, 518, 519, 520, 521, 522, 523, 524, 525, 526, 527, 528, 529, 530, 531, 532, 533, 534, 535, 536, 537, 538, 539, 540, 541, 542, 543, 544, 545, 546, 547, 548, 549, 550, 551, 552, 553, 554, 555, 556, 557, 558, 559, 560, 561, 562, 563, 564, 565, 566, 567, 568, 569, 570, 571, 572, 573, 574, 575, 576, 577, 578, 579, 580, 581, 582, 583, 584, 585, 586, 587, 588, 589, 590, 591, 592, 593, 594, 595, 596, 597, 598, 599, 600, 601, 602, 603, 604, 605, 606, 607, 608, 609, 610, 611, 612, 613, 614, 615, 616, 617, 618, 619, 620, 621, 622, 623, 624, 625, 626, 627, 628, 629, 630, 631, 632, 633, 634, 635, 636, 637, 638, 639, 640, 641, 642, 643, 644, 645, 646, 647, 648, 649, 650, 651, 652, 653, 654, 655, 656, 657, 658, 659, 660, 661, 662, 663, 664, 665, 666, 667, 668, 669, 670, 671, 672, 673, 674, 675, 676, 677, 678, 679, 680, 681, 682, 683, 684, 685, 686, 687, 688, 689, 690, 691, 692, 693, 694, 695, 696, 697, 698, 699, 700, 701, 702, 703, 704, 705, 706, 707, 708, 709, 710, 711, 712, 713, 714, 715, 716, 717, 718, 719, 720, 721, 722, 723, 724, 725, 726, 727, 728, 729, 730, 731, 732, 733, 734, 735, 736, 737, 738, 739, 740, 741, 742, 743, 744, 745, 746, 747, 748, 749, 750, 751, 752, 753, 754, 755, 756, 757, 758, 759, 760, 761, 762, 763, 764, 765, 766, 767, 768, 769, 770, 771, 
distro:
26494, 27007, 26647, 27232, 27377, 27926, 27521, 28133, 26045, 26432, 26108, 26594, 27147, 27624, 27300, 27777, 27482, 28049, 27599, 28193, 27349, 27997, 27475, 28069, 24679, 24832, 24769, 24949, 31644, 32040, 31842, 32211, 31901, 32243, 32072, 32423, 32603, 33134, 32711, 33314, 32301, 32886, 32463, 33057, 32532, 32982, 32694, 33090, 29254, 29677, 29353, 29884, 17664, 17781, 17700, 17853, 23404, 23584, 23530, 23719, 32921, 33083, 33083, 33308, 37713, 38037, 38010, 38298, 37298, 37595, 37442, 37955, 36735, 37086, 36960, 37320, 37398, 37677, 37596, 37929, 36031, 36265, 36274, 36499, 28611, 28845, 28764, 28998, 42237, 42282, 42543, 42453, 42257, 42239, 42464, 42437, 41984, 42056, 42200, 42281, 42450, 42531, 42693, 42792, 41531, 41540, 41756, 41720, 42646, 42574, 42871, 42826, 22444, 22381, 22588, 22552, 26336, 26291, 26462, 26426, 42867, 42786, 43092, 42993, 42948, 42948, 43209, 43200, 44404, 44395, 44674, 44647, 43755, 43809, 44025, 44106, 42604, 42505, 42757, 42811, 41698, 41707, 41932, 41959, 22378, 22414, 22486, 22495, 32360, 32432, 32540, 32621, 43019, 43073, 43325, 43298, 42749, 42641, 42929, 42956, 44313, 44295, 44520, 44592, 43858, 43903, 44092, 44164, 42616, 42652, 42868, 42904, 38644, 38716, 38932, 38977, 26680, 26770, 26833, 26869, 32431, 32359, 32629, 32575, 42912, 42948, 43191, 43164, 44800, 44719, 44989, 45016, 43101, 43119, 43317, 43344, 42679, 42679, 42904, 42931, 42856, 42892, 43099, 43153, 38984, 39020, 39218, 39290, 37766, 37811, 37991, 38081, 42787, 42760, 43039, 43111, 44345, 44336, 44615, 44561, 43029, 42948, 43299, 43164, 42834, 42861, 43032, 43113, 42941, 42905, 43175, 43130, 33467, 33458, 33611, 33656, 26790, 26835, 26889, 26925, 42309, 42372, 42543, 42633, 43989, 43899, 44214, 44142, 43121, 43112, 43382, 43382, 44505, 44325, 44685, 44667, 43590, 43554, 43797, 43833, 42652, 42751, 42967, 43012, 28198, 28189, 28387, 28306, 43383, 43338, 43671, 43662, 44797, 44806, 45040, 45004, 43609, 43582, 43807, 43789, 44447, 44429, 44744, 44681, 43946, 43901, 44162, 44081, 43348, 43357, 43663, 43591, 22916, 22961, 23051, 23060, 32055, 31992, 32190, 32163, 43018, 43045, 43279, 43270, 43428, 43482, 43707, 43734, 43758, 43695, 44064, 43965, 42966, 42849, 43209, 43110, 43098, 43206, 43395, 43476, 38720, 38603, 38963, 38846, 23061, 23007, 23223, 23169, 37499, 37535, 37742, 37760, 44369, 44306, 44630, 44567, 44058, 43995, 44310, 44238, 43032, 42843, 43302, 43032, 42859, 42877, 43111, 43075, 44370, 44460, 44559, 44775, 33150, 33132, 33366, 33348, 32983, 32965, 33127, 33172, 43871, 43862, 44195, 44141, 42365, 42320, 42554, 42563, 41805, 41634, 42039, 41886, 42327, 42381, 42552, 42642, 43426, 43426, 43687, 43669, 39717, 39753, 39942, 40014, 23243, 23180, 23324, 23315, 38682, 38718, 38907, 39051, 43827, 43782, 44043, 44007, 42011, 41993, 42227, 42182, 42124, 42016, 42403, 42331, 42889, 42898, 43159, 43168, 44239, 44149, 44437, 44347, 34234, 34216, 34441, 34423, 39179, 39269, 39467, 39476, 44127, 44055, 44334, 44334, 41702, 41684, 41891, 41936, 41587, 41668, 41911, 41956, 42450, 42423, 42702, 42585, 43133, 43007, 43421, 43241, 34308, 34290, 34470, 34443, 23033, 23114, 23177, 23186, 44068, 44059, 44248, 44275, 43853, 43727, 44060, 43970, 42447, 42420, 42636, 42672, 43175, 43004, 43346, 43256, 44169, 44223, 44403, 44412, 44628, 44673, 44853, 44853, 23267, 23303, 23366, 23375, 42365, 42392, 42581, 42617, 42851, 42860, 43112, 43067, 42619, 42610, 42907, 42835, 42076, 42094, 42346, 42364, 43102, 43093, 43291, 43363, 43108, 43225, 43360, 43504, 28662, 28707, 28824, 28833, 22679, 22625, 22760, 22742, 32794, 32749, 33028, 32875, 42866, 42830, 43082, 43055, 41829, 41784, 42117, 41982, 41301, 41544, 41625, 41796, 43724, 43715, 43976, 44012, 43800, 43728, 44061, 43971, 38417, 38354, 38624, 38561, 37237, 37273, 37516, 37453, 42570, 42525, 42903, 42750, 43894, 43822, 44047, 44119, 43339, 43537, 43654, 43825, 43855, 44071, 44215, 44296, 42088, 42205, 42295, 42385, 33593, 33494, 33773, 33665, 27124, 27205, 27250, 27358, 38236, 38227, 38407, 38452, 43106, 43295, 43502, 43529, 42464, 42392, 42725, 42608, 43263, 43326, 43470, 43542, 42493, 42412, 42817, 42727, 42176, 42158, 42401, 42383, 34192, 34021, 34372, 34237, 43065, 43110, 43254, 43389, 43490, 43571, 43661, 43751, 42710, 42665, 42917, 42899, 43591, 43474, 43780, 43717, 43173, 43272, 43425, 43533, 43093, 43210, 43291, 43498, 22622, 22685, 22730, 22829, 27174, 27066, 27300, 27219, 42486, 42378, 42657, 42630, 43675, 43747, 43981, 44026, 43392, 43509, 43626, 43734, 44124, 44088, 44394, 44403, 43445, 43409, 43625, 43724, 43328, 43319, 43616, 43526, 24397, 24280, 24550, 24397, 34562, 34364, 34715, 34544, 38446, 38347, 38689, 38482, 38793, 38640, 38973, 38838, 39706, 39625, 39967, 39904, 40522, 40360, 40846, 40486, 38243, 38180, 38504, 38387, 31013, 30815, 31184, 31013, 25815, 25572, 25968, 25743, 32882, 32522, 33080, 32720, 34958, 34580, 35156, 34769, 35709, 35268, 35889, 35421, 35486, 35153, 35774, 35351, 33600, 33294, 33789, 33474, 31111, 30688, 31363, 30787, 22859, 22670, 23021, 22760, 29005, 28501, 29176, 28681, 28713, 28326, 28893, 28488, 30007, 29413, 30133, 29575, 29134, 28666, 29314, 28801, 29703, 29154, 29883, 29262, 29063, 28586, 29180, 28712, 16382, 16067, 16436, 16130, 21021, 20652, 21093, 20742, 23178, 22782, 23304, 22872, 23226, 22749, 23343, 22866, 24188, 23648, 24350, 23738, 24438, 23826, 24573, 23934, 23316, 22893, 23415, 23010, 18925, 18538, 19051, 18628, 
gpgpu_n_tot_thrd_icount = 12911309440
gpgpu_n_tot_w_icount = 403478420
gpgpu_n_icache_hits = 219780655
gpgpu_n_icache_misses = 2032
gpgpu_n_l1dcache_read_hits = 975612
gpgpu_n_l1dcache_read_misses = 836068
gpgpu_n_l1dcache_write_accesses = 10816
gpgpu_n_l1dcache_wirte_misses = 10816
gpgpu_n_tcache_hits = 0
gpgpu_n_tcache_misses = 0
gpgpu_n_ccache_hits = 18205731
gpgpu_n_ccache_misses = 4081
gpgpu_n_stall_shd_mem = 2090303
gpgpu_n_mem_read_local = 0
gpgpu_n_mem_write_local = 0
gpgpu_n_mem_read_global = 825142
gpgpu_n_mem_write_global = 10816
gpgpu_n_mem_texture = 0
gpgpu_n_mem_const = 924
gpgpu_n_load_insn  = 57973760
gpgpu_n_store_insn = 692224
gpgpu_n_shmem_insn = 1435609022
gpgpu_n_tex_insn = 0
gpgpu_n_const_mem_insn = 87652864
gpgpu_n_param_mem_insn = 987034558
gpgpu_n_shmem_bkconflict = 0
gpgpu_n_cache_bkconflict = 0
gpgpu_n_intrawarp_mshr_merge = 0
gpgpu_n_cmem_portconflict = 283920
gpgpu_stall_shd_mem[c_mem][bk_conf] = 283920
gpgpu_stall_shd_mem[c_mem][mshr_rc] = 0
gpgpu_stall_shd_mem[c_mem][icnt_rc] = 0
gpgpu_stall_shd_mem[t_mem][mshr_rc] = 0
gpgpu_stall_shd_mem[t_mem][icnt_rc] = 0
gpgpu_stall_shd_mem[s_mem][bk_conf] = 903136
gpgpu_stall_shd_mem[gl_mem][bk_conf] = 0
gpgpu_stall_shd_mem[gl_mem][coal_stall] = 903247
gpgpu_stall_shd_mem[g_mem_ld][mshr_rc] = 0
gpgpu_stall_shd_mem[g_mem_ld][icnt_rc] = 0
gpgpu_stall_shd_mem[g_mem_ld][wb_icnt_rc] = 0
gpgpu_stall_shd_mem[g_mem_ld][wb_rsrv_fail] = 0
gpgpu_stall_shd_mem[g_mem_st][mshr_rc] = 0
gpgpu_stall_shd_mem[g_mem_st][icnt_rc] = 0
gpgpu_stall_shd_mem[g_mem_st][wb_icnt_rc] = 0
gpgpu_stall_shd_mem[g_mem_st][wb_rsrv_fail] = 0
gpgpu_stall_shd_mem[l_mem_ld][mshr_rc] = 0
gpgpu_stall_shd_mem[l_mem_ld][icnt_rc] = 0
gpgpu_stall_shd_mem[l_mem_ld][wb_icnt_rc] = 0
gpgpu_stall_shd_mem[l_mem_ld][wb_rsrv_fail] = 0
gpgpu_stall_shd_mem[l_mem_st][mshr_rc] = 0
gpgpu_stall_shd_mem[l_mem_st][icnt_rc] = 0
gpgpu_stall_shd_mem[l_mem_ld][wb_icnt_rc] = 0
gpgpu_stall_shd_mem[l_mem_ld][wb_rsrv_fail] = 0
gpu_reg_bank_conflict_stalls = 0
Warp Occupancy Distribution:
Stall:12224014	W0_Idle:139108	W0_Scoreboard:96276078	W1:1163250	W2:788031	W3:874305	W4:843480	W5:542115	W6:810153	W7:445527	W8:846018	W9:470268	W10:581112	W11:454743	W12:696015	W13:440748	W14:651438	W15:440217	W16:822593	W17:401139	W18:575964	W19:399249	W20:641556	W21:428319	W22:622890	W23:408276	W24:700578	W25:409419	W26:576828	W27:369378	W28:749367	W29:589293	W30:588303	W31:1062855	W32:384084993
maxmrqlatency = 63 
maxdqlatency = 0 
maxmflatency = 554 
averagemflatency = 130 
max_icnt2mem_latency = 273 
max_icnt2sh_latency = 18320400 
mrq_lat_table:12929 	5614 	1961 	4709 	3520 	107 	0 	0 	0 	0 	0 	0 	0 	0 	0 	0 	0 	0 	0 	0 	0 	0 	0 	0 	0 	0 	0 	0 	0 	0 	0 	0 	
dq_lat_table:0 	0 	0 	0 	0 	0 	0 	0 	0 	0 	0 	0 	0 	0 	0 	0 	0 	0 	0 	0 	0 	0 	0 	0 	0 	0 	0 	0 	0 	0 	0 	0 	
mf_lat_table:0 	0 	0 	0 	0 	0 	391600 	440660 	4620 	2 	0 	0 	0 	0 	0 	0 	0 	0 	0 	0 	0 	0 	0 	0 	0 	0 	0 	0 	0 	0 	0 	0 	
icnt2mem_lat_table:132 	823859 	11885 	231 	283 	195 	330 	133 	16 	0 	0 	0 	0 	0 	0 	0 	0 	0 	0 	0 	0 	0 	0 	0 	
icnt2sh_lat_table:0 	398460 	420413 	7177 	16 	0 	0 	0 	0 	0 	0 	0 	0 	0 	0 	0 	0 	168 	168 	352 	656 	1180 	2296 	4696 	
mf_lat_pw_table:1300 	0 	0 	0 	0 	0 	22775 	10834 	23 	0 	0 	0 	0 	0 	0 	0 	0 	0 	0 	0 	0 	0 	0 	0 	0 	0 	0 	0 	0 	0 	0 	0 	
maximum concurrent accesses to same row:
dram[0]:        64        64        64        64        64        64        64        64        64        64        64        64        64        64        64        64 
dram[1]:        64        64        64        64        64        64        64        64        64        64        64        64        64        64        64        64 
dram[2]:        64        64        64        64        64        64        64        64        64        64        64        64        64        64        64        64 
dram[3]:        64        64        64        64        64        64        64        64        64        64        64        64        64        64        64        64 
dram[4]:        64        64        64        64        64        64        64        64        64        64        64        64        64        64        64        64 
maximum service time to same row:
dram[0]:   4593360   4574704   4708455   4573963   4574216   4804202   4694149   4443592   4625124   4663095   4528909   4528142   4650186   4586917   4456404   4579008 
dram[1]:   4593366   4572298   4708453   4573959   4574216   4804198   4694153   4443590   4625118   4663087   4533877   4528044   4650198   4586925   4458372   4579000 
dram[2]:   4592222   4577174   4704071   4577137   4599384   4810116   4695071   4439724   4661428   4685945   4511693   4523682   4656376   4589349   4458374   4576530 
dram[3]:   4586656   4576164   4704071   4569921   4599370   4810120   4707565   4439722   4661422   4685947   4461729   4549336   4656396   4589361   4466176   4576534 
dram[4]:   4582136   4584094   4708393   4563711   4633440   4808362   4717443   4406658   4660684   4679563   3904668   4559506   4658658   4585317   4458832   4594084 
average row accesses per activate:
dram[0]:  8.441860  8.585366  6.901961 10.057143 35.555557 29.090910 17.777779 18.105263 13.538462  9.894737  9.244445  9.454545 10.400000 11.870968 16.000000  8.000000 
dram[1]:  9.050000  8.000000  7.333333  7.822222 35.555557 29.090910 26.666666 18.105263 16.000000  8.545455  9.043478 10.146341 10.666667 11.030303 14.666667  7.822222 
dram[2]:  7.098039  8.186047  8.585366  8.380953 35.555557 29.090910 20.000000 20.352942 13.538462  9.894737  8.320000  9.454545 10.666667  9.282051 17.600000  7.183673 
dram[3]:  8.804878  7.652174  8.800000  8.186047 35.555557 24.615385 22.857143 23.066668 12.571428 10.000000  8.489796  9.904762 11.555555 12.482759 22.000000  7.040000 
dram[4]:  7.200000  8.585366  6.769231  8.333333 29.090910 29.090910 26.666666 20.352942 12.137931  9.268292  8.666667  9.454545  9.454545 11.030303 16.000000  8.186047 
average row locality = 28840/2623 = 10.995044
number of total memory accesses made:
dram[0]:         0         0         0         0         0         0         0         0         0         0         0         0         0         0         0         0 
dram[1]:         0         0         0         0         0         0         0         0         0         0         0         0         0         0         0         0 
dram[2]:         0         0         0         0         0         0         0         0         0         0         0         0         0         0         0         0 
dram[3]:         0         0         0         0         0         0         0         0         0         0         0         0         0         0         0         0 
dram[4]:         0         0         0         0         0         0         0         0         0         0         0         0         0         0         0         0 
total accesses: 0
min_bank_accesses = 0!
min_chip_accesses = 0!
number of total read accesses:
dram[0]:       235       224       224       224       192       192       192       216       224       236       256       256       256       232       224       224 
dram[1]:       234       224       224       224       192       192       192       216       224       236       256       256       256       230       224       224 
dram[2]:       234       224       224       224       192       192       192       218       224       236       256       256       256       228       224       224 
dram[3]:       233       224       224       224       192       192       192       218       224       238       256       256       256       228       224       224 
dram[4]:       232       224       224       222       192       192       192       218       224       238       256       256       256       230       224       224 
total reads: 18024
bank skew: 256/192 = 1.33
chip skew: 3607/3604 = 1.00
number of total write accesses:
dram[0]:       128       128       128       128       128       128       128       128       128       140       160       160       160       136       128       128 
dram[1]:       128       128       128       128       128       128       128       128       128       140       160       160       160       134       128       128 
dram[2]:       128       128       128       128       128       128       128       128       128       140       160       160       160       134       128       128 
dram[3]:       128       128       128       128       128       128       128       128       128       142       160       160       160       134       128       128 
dram[4]:       128       128       128       128       128       128       128       128       128       142       160       160       160       134       128       128 
total reads: 10816
bank skew: 160/128 = 1.25
chip skew: 2164/2162 = 1.00
average mf latency per bank:
dram[0]:       3853      4260      4824      3038      2757      3815      3120      2947      4856      4356      3288      4099      3865      2552      4155      4869
dram[1]:       3855      4250      4817      3012      2752      3830      3111      2949      4887      4353      3283      4121      3845      2565      4172      4867
dram[2]:       3877      4222      4817      3050      2733      3814      3125      2911      4863      4375      3282      4098      3877      2592      4145      4866
dram[3]:       3891      4203      4813      3106      2734      3811      3153      2923      4840      4344      3281      4090      3913      2583      4090      4889
dram[4]:       3892      4239      4803      3106      2756      3796      3139      2901      4833      4340      3292      4095      3894      2565      4099      4887
maximum mf latency per bank:
dram[0]:        290       266       265       266       356       270       265       333       434       266       414       440       281       288       388       266
dram[1]:        328       264       272       265       385       337       266       425       373       266       353       375       267       283       358       266
dram[2]:        274       265       265       265       381       353       266       482       319       265       338       338       265       267       511       266
dram[3]:        398       266       287       265       392       268       265       554       324       264       326       312       295       420       361       266
dram[4]:        307       263       265       266       418       327       264       392       289       265       416       352       282       397       327       264

Number of Memory Banks Accessed per Memory Operation per Warp (from 0):
0	0	0	0	0	0	0	0	0	0	0	0	0	0	0	0	0	0	0	0	0	0	0	0	0	0	0	0	0	0	0	0	0	0	0	0	0	0	0	0	0	0	0	0	0	0	0	0	0	0	0	0	0	0	0	0	0	0	0	0	0	0	0	0	0	0	0	0	0	0	0	0	0	0	0	0	0	0	0	0	
Average # of Memory Banks Accessed per Memory Operation per Warp=-nan

position of mrq chosen
0	0	0	0	0	0	0	0	0	0	0	0	0	0	0	0	

average position of mrq chosen = -nan
gpgpu_l2_write_miss = 0
gpgpu_l2_write_access = 0
gpgpu_l2_read_miss = 0
gpgpu_l2_read_access = 0
Cache L2_bank_000:
MSHR contents
MSHR: tag=0x80151580, atomic=0 1 entries : 0x8870c00 :  mf: uid=239825921, sid06:w11, part=0, addr=0x80151580, load , size=128, unknown  status = IN_PARTITION_DRAM (18320400), 

DRAM[0]: 16 bks, busW=4 BL=8 CL=12, tRRD=2 tCCD=6, tRCD=12 tRAS=28 tRP=12 tRC=40
n_cmd=27480600 n_nop=27468040 n_act=518 n_pre=502 n_req=5771 n_rd=7212 n_write=4328 bw_util=0.0008399
n_activity=100009 dram_eff=0.2308
bk0: 470a 27477676i bk1: 448a 27477578i bk2: 448a 27477407i bk3: 448a 27477543i bk4: 384a 27477309i bk5: 384a 27477494i bk6: 384a 27477245i bk7: 432a 27477275i bk8: 448a 27476821i bk9: 472a 27477077i bk10: 512a 27477247i bk11: 512a 27477857i bk12: 512a 27476397i bk13: 462a 27476115i bk14: 448a 27475783i bk15: 448a 27464288i 
dram_util_bins: 0 0 0 0 0 0 0 0 0 0
dram_eff_bins: 0 0 0 0 0 0 0 0 0 0
mrqq: max=5 avg=0.00153286
Cache L2_bank_001:
MSHR contents

DRAM[1]: 16 bks, busW=4 BL=8 CL=12, tRRD=2 tCCD=6, tRCD=12 tRAS=28 tRP=12 tRC=40
n_cmd=27480600 n_nop=27468038 n_act=523 n_pre=507 n_req=5766 n_rd=7208 n_write=4324 bw_util=0.0008393
n_activity=99975 dram_eff=0.2307
bk0: 468a 27477754i bk1: 448a 27477922i bk2: 448a 27477849i bk3: 448a 27477617i bk4: 384a 27477307i bk5: 384a 27477420i bk6: 384a 27477577i bk7: 432a 27477251i bk8: 448a 27476817i bk9: 472a 27476683i bk10: 512a 27477063i bk11: 512a 27477640i bk12: 512a 27476226i bk13: 460a 27476080i bk14: 448a 27475659i bk15: 448a 27464038i 
dram_util_bins: 0 0 0 0 0 0 0 0 0 0
dram_eff_bins: 0 0 0 0 0 0 0 0 0 0
mrqq: max=5 avg=0.00155237
Cache L2_bank_002:
MSHR contents

DRAM[2]: 16 bks, busW=4 BL=8 CL=12, tRRD=2 tCCD=6, tRCD=12 tRAS=28 tRP=12 tRC=40
n_cmd=27480600 n_nop=27468012 n_act=536 n_pre=520 n_req=5766 n_rd=7208 n_write=4324 bw_util=0.0008393
n_activity=100548 dram_eff=0.2294
bk0: 468a 27477680i bk1: 448a 27477513i bk2: 448a 27477689i bk3: 448a 27477781i bk4: 384a 27477378i bk5: 384a 27477374i bk6: 384a 27477302i bk7: 436a 27477493i bk8: 448a 27476655i bk9: 472a 27476908i bk10: 512a 27476974i bk11: 512a 27477781i bk12: 512a 27476219i bk13: 456a 27476095i bk14: 448a 27475752i bk15: 448a 27463910i 
dram_util_bins: 0 0 0 0 0 0 0 0 0 0
dram_eff_bins: 0 0 0 0 0 0 0 0 0 0
mrqq: max=5 avg=0.0015591
Cache L2_bank_003:
MSHR contents

DRAM[3]: 16 bks, busW=4 BL=8 CL=12, tRRD=2 tCCD=6, tRCD=12 tRAS=28 tRP=12 tRC=40
n_cmd=27480600 n_nop=27468058 n_act=510 n_pre=494 n_req=5769 n_rd=7210 n_write=4328 bw_util=0.0008397
n_activity=99887 dram_eff=0.231
bk0: 466a 27477505i bk1: 448a 27477604i bk2: 448a 27477701i bk3: 448a 27477657i bk4: 384a 27477430i bk5: 384a 27477505i bk6: 384a 27477496i bk7: 436a 27477446i bk8: 448a 27476815i bk9: 476a 27477006i bk10: 512a 27477010i bk11: 512a 27477734i bk12: 512a 27476174i bk13: 456a 27476139i bk14: 448a 27475856i bk15: 448a 27464255i 
dram_util_bins: 0 0 0 0 0 0 0 0 0 0
dram_eff_bins: 0 0 0 0 0 0 0 0 0 0
mrqq: max=7 avg=0.00155128
Cache L2_bank_004:
MSHR contents
MSHR: tag=0x80151480, atomic=0 1 entries : 0x8870e30 :  mf: uid=239825922, sid06:w09, part=4, addr=0x80151480, load , size=128, unknown  status = IN_PARTITION_DRAM (18320400), 

DRAM[4]: 16 bks, busW=4 BL=8 CL=12, tRRD=2 tCCD=6, tRCD=12 tRAS=28 tRP=12 tRC=40
n_cmd=27480600 n_nop=27467999 n_act=541 n_pre=525 n_req=5768 n_rd=7207 n_write=4328 bw_util=0.0008395
n_activity=100908 dram_eff=0.2286
bk0: 464a 27477479i bk1: 448a 27477534i bk2: 448a 27477751i bk3: 444a 27477876i bk4: 384a 27477366i bk5: 384a 27477329i bk6: 384a 27477499i bk7: 436a 27477669i bk8: 448a 27476853i bk9: 476a 27476762i bk10: 512a 27476944i bk11: 512a 27477808i bk12: 512a 27476237i bk13: 459a 27476041i bk14: 448a 27475752i bk15: 448a 27463513i 
dram_util_bins: 0 0 0 0 0 0 0 0 0 0
dram_eff_bins: 0 0 0 0 0 0 0 0 0 0
mrqq: max=5 avg=0.00155957
Cache L2_bank_000:	Size = 131072 B (64 Set x 16-way x 128 byte line)
		Access = 167501, Miss = 3607 (0.0215), PendingHit = 411 (0.00245)
Cache L2_bank_001:	Size = 131072 B (64 Set x 16-way x 128 byte line)
		Access = 167413, Miss = 3604 (0.0215), PendingHit = 386 (0.00231)
Cache L2_bank_002:	Size = 131072 B (64 Set x 16-way x 128 byte line)
		Access = 167380, Miss = 3604 (0.0215), PendingHit = 425 (0.00254)
Cache L2_bank_003:	Size = 131072 B (64 Set x 16-way x 128 byte line)
		Access = 167375, Miss = 3605 (0.0215), PendingHit = 435 (0.0026)
Cache L2_bank_004:	Size = 131072 B (64 Set x 16-way x 128 byte line)
		Access = 167395, Miss = 3604 (0.0215), PendingHit = 414 (0.00247)
L2 Cache Total Miss Rate = 0.022

icnt_total_pkts_mem_to_simt=4140208
icnt_total_pkts_simt_to_mem=880328

LD_mem_lat_dist  0 0 0 0 0 0 0 0 0 0 0 0 0 0 0 0 0 0 0 0 0 0 0 0 0 0 0
ST_mem_lat_dist  0 0 0 0 0 0 0 0 0 0 0 0 0 0 0 0 0 0 0 0 0 0 0 0 0 0 0
Traffic 0 Stat
%=================================
% Average latency = 1.09078
% Accepted packets = 0 at node 0 (avg = 0.0010446)
lat(1) = 1.09078;
thru(1,:) = [ 0 0 0 0 0 0 0 0 0 0 0 0 0 0 0.00480767 0.00480505 0.00480415 0.00480423 0.00480478 0 0 0 0 ];
% latency change    = 1
% throughput change = 1
Traffic 1 Stat
%=================================
% Average latency = 6.83808
% Accepted packets = 0 at node 14 (avg = 0.0049128)
lat(2) = 6.83808;
thru(2,:) = [ 0.00842381 0.00800744 0.00770139 0.00766836 0.00843377 0.00825528 0.00798615 0.0079394 0.00784265 0.00830806 0.00838232 0.0080957 0.00787717 0.00807297 0 0 0 0 0 0 0 0 0 ];
% latency change    = 0.840485
% throughput change = 0.787371
----------------------------Interconnect-DETAILS---------------------------------=======Traffic[0]class0 ======
Traffic[0]class0Overall average latency = 1.09078 (1 samples)
Traffic[0]class0Overall average accepted rate = 0.0010446 (1 samples)
Traffic[0]class0Overall min accepted rate = 0 (1 samples)
traffic_manager/latency_stat_0_freq = [ 0 820541 4918 253 161 7395 1163 382 1574 412 107 11 1 3 1 2 0 9 0 3 0 2 0 4 0 1 0 7 0 1 0 2 0 3 1 0 0 1 0 0 0 1 0 3 0 0 0 2 1 2 0 0 0 0 0 3 0 0 0 0 0 0 0 2 0 5 0 4 0 5 0 1 0 1 0 1 0 0 0 0 0 0 0 0 0 0 0 0 1 0 0 0 0 0 0 1 0 1 0 0 0 0 0 0 0 0 0 0 0 0 0 0 0 0 0 1 0 0 0 0 0 0 0 0 0 2 0 2 0 0 0 0 0 0 0 2 0 0 0 0 0 2 0 0 0 0 0 0 0 1 0 0 1 2 1 2 0 0 0 3 2 3 1 1 0 1 0 0 0 1 0 0 0 6 0 4 0 5 0 2 0 0 0 1 0 2 0 1 0 0 0 0 0 0 0 1 0 2 0 0 0 1 0 0 0 2 0 0 0 0 0 0 0 4 0 1 0 1 0 2 0 0 0 0 0 0 0 0 0 0 0 0 0 0 0 0 0 0 0 0 0 0 0 0 0 0 0 0 0 0 0 0 0 0 0 0 0 0 0 0 0 0 0 0 0 0 0 0 0 1 0 0 0 0 0 1 0 0 0 0 0 0 0 1 0 0 0 0 0 0 0 1 0 0 0 0 0 0 0 0 0 0 0 0 0 0 0 0 0 0 0 0 0 1 0 0 0 0 0 0 0 0 0 0 0 0 0 0 0 0 0 0 0 0 0 0 0 0 0 0 0 0 0 0 0 0 0 0 0 0 0 0 0 0 0 0 0 0 0 0 0 0 0 0 0 0 0 0 0 0 0 0 0 0 0 0 0 0 0 0 0 0 0 0 0 0 0 0 0 0 0 0 0 0 0 0 0 0 0 0 0 0 0 0 0 0 0 0 0 0 0 0 0 0 0 0 0 0 0 0 0 0 0 0 0 0 0 0 0 0 0 0 0 0 0 0 0 0 0 0 0 0 0 0 0 0 0 0 0 0 0 0 0 1 0 0 0 0 0 0 0 0 0 2 0 0 0 0 0 1 0 0 0 0 0 0 0 0 0 0 0 0 0 0 0 0 0 0 0 0 0 0 0 0 0 0 0 0 0 0 0 0 0 0 0 0 0 0 0 0 0 0 0 0 0 0 0 0 0 0 0 0 0 0 0 0 0 0 0 0 0 0 0 0 0 0 0 0 0 0 0 0 0 0 0 0 0 0 0 0 0 0 0 0 0 0 0 0 0 0 0 0 0 0 0 0 0 0 0 0 0 0 0 0 0 0 0 0 0 0 0 0 0 0 0 0 0 0 0 0 0 0 0 0 0 0 0 0 0 0 0 0 0 0 0 0 0 0 0 0 0 0 0 0 0 0 0 0 0 0 0 0 0 0 0 0 0 0 0 0 0 0 0 0 0 0 0 0 0 0 0 0 0 0 0 0 0 0 0 0 0 0 0 0 0 0 0 0 0 0 0 0 0 0 0 0 0 0 0 0 0 0 0 0 0 0 0 0 0 0 0 0 0 0 0 0 0 0 0 0 0 0 0 0 0 0 0 0 0 0 0 0 0 0 0 0 0 0 0 0 0 0 0 0 0 0 0 0 0 0 0 0 0 0 0 0 0 0 0 0 0 0 0 0 0 0 0 0 0 0 0 0 0 0 0 0 0 0 0 0 0 0 0 0 0 0 0 0 0 0 0 0 0 0 0 0 0 0 0 0 0 0 0 0 0 0 0 0 0 0 0 0 0 0 0 0 0 0 0 0 0 0 0 0 0 0 0 0 0 0 0 0 0 0 0 0 0 0 0 0 0 0 0 0 0 0 0 0 0 0 0 0 0 0 0 0 0 0 0 0 0 0 0 0 0 0 0 0 0 0 0 0 0 0 0 0 0 0 0 0 0 0 0 0 0 0 0 0 0 0 0 0 0 0 0 0 0 0 0 0 0 0 0 0 0 0 0 0 0 0 0 0 0 0 0 0 0 0 0 0 0 0 0 0 0 0 0 0 0 0 0 0 0 0 0 0 0 0 0 0 0 0 0 0 0 0 0 0 0 0 0 0 0 0 0 0 0 0 0 0 0 0 0 0 0 0 0 0 0 0 0 0 0 0 0 0 0 0 0 0 0 0 0 0 0 0 0 0 0 0 0 0 0 0 0 0 0 0 0 0 0 0 0 0 0 0 0 0 0 0 0 0 0 0 0 0 0 0 0 0 0 0 0 0 0 0 0 0 0 0 ];
Traffic[0]class1Average hops = 1 (837064 samples)
traffic_manager/hop_stats_freq = [ 0 837064 0 0 0 0 0 0 0 0 0 0 0 0 0 0 0 0 0 0 ];
=======Traffic[1]class0 ======
Traffic[1]class0Overall average latency = 6.83808 (1 samples)
Traffic[1]class0Overall average accepted rate = 0.0049128 (1 samples)
Traffic[1]class0Overall min accepted rate = 0 (1 samples)
traffic_manager/latency_stat_0_freq = [ 0 10484 64 471 122 389815 8280 11410 338537 20314 6938 6574 16077 7166 14146 815 2999 625 668 478 302 286 199 42 94 38 63 17 14 7 4 8 3 0 1 0 3 0 0 0 0 0 0 0 0 0 0 0 0 0 0 0 0 0 0 0 0 0 0 0 0 0 0 0 0 0 0 0 0 0 0 0 0 0 0 0 0 0 0 0 0 0 0 0 0 0 0 0 0 0 0 0 0 0 0 0 0 0 0 0 0 0 0 0 0 0 0 0 0 0 0 0 0 0 0 0 0 0 0 0 0 0 0 0 0 0 0 0 0 0 0 0 0 0 0 0 0 0 0 0 0 0 0 0 0 0 0 0 0 0 0 0 0 0 0 0 0 0 0 0 0 0 0 0 0 0 0 0 0 0 0 0 0 0 0 0 0 0 0 0 0 0 0 0 0 0 0 0 0 0 0 0 0 0 0 0 0 0 0 0 0 0 0 0 0 0 0 0 0 0 0 0 0 0 0 0 0 0 0 0 0 0 0 0 0 0 0 0 0 0 0 0 0 0 0 0 0 0 0 0 0 0 0 0 0 0 0 0 0 0 0 0 0 0 0 0 0 0 0 0 0 0 0 0 0 0 0 0 0 0 0 0 0 0 0 0 0 0 0 0 0 0 0 0 0 0 0 0 0 0 0 0 0 0 0 0 0 0 0 0 0 0 0 0 0 0 0 0 0 0 0 0 0 0 0 0 0 0 0 0 0 0 0 0 0 0 0 0 0 0 0 0 0 0 0 0 0 0 0 0 0 0 0 0 0 0 0 0 0 0 0 0 0 0 0 0 0 0 0 0 0 0 0 0 0 0 0 0 0 0 0 0 0 0 0 0 0 0 0 0 0 0 0 0 0 0 0 0 0 0 0 0 0 0 0 0 0 0 0 0 0 0 0 0 0 0 0 0 0 0 0 0 0 0 0 0 0 0 0 0 0 0 0 0 0 0 0 0 0 0 0 0 0 0 0 0 0 0 0 0 0 0 0 0 0 0 0 0 0 0 0 0 0 0 0 0 0 0 0 0 0 0 0 0 0 0 0 0 0 0 0 0 0 0 0 0 0 0 0 0 0 0 0 0 0 0 0 0 0 0 0 0 0 0 0 0 0 0 0 0 0 0 0 0 0 0 0 0 0 0 0 0 0 0 0 0 0 0 0 0 0 0 0 0 0 0 0 0 0 0 0 0 0 0 0 0 0 0 0 0 0 0 0 0 0 0 0 0 0 0 0 0 0 0 0 0 0 0 0 0 0 0 0 0 0 0 0 0 0 0 0 0 0 0 0 0 0 0 0 0 0 0 0 0 0 0 0 0 0 0 0 0 0 0 0 0 0 0 0 0 0 0 0 0 0 0 0 0 0 0 0 0 0 0 0 0 0 0 0 0 0 0 0 0 0 0 0 0 0 0 0 0 0 0 0 0 0 0 0 0 0 0 0 0 0 0 0 0 0 0 0 0 0 0 0 0 0 0 0 0 0 0 0 0 0 0 0 0 0 0 0 0 0 0 0 0 0 0 0 0 0 0 0 0 0 0 0 0 0 0 0 0 0 0 0 0 0 0 0 0 0 0 0 0 0 0 0 0 0 0 0 0 0 0 0 0 0 0 0 0 0 0 0 0 0 0 0 0 0 0 0 0 0 0 0 0 0 0 0 0 0 0 0 0 0 0 0 0 0 0 0 0 0 0 0 0 0 0 0 0 0 0 0 0 0 0 0 0 0 0 0 0 0 0 0 0 0 0 0 0 0 0 0 0 0 0 0 0 0 0 0 0 0 0 0 0 0 0 0 0 0 0 0 0 0 0 0 0 0 0 0 0 0 0 0 0 0 0 0 0 0 0 0 0 0 0 0 0 0 0 0 0 0 0 0 0 0 0 0 0 0 0 0 0 0 0 0 0 0 0 0 0 0 0 0 0 0 0 0 0 0 0 0 0 0 0 0 0 0 0 0 0 0 0 0 0 0 0 0 0 0 0 0 0 0 0 0 0 0 0 0 0 0 0 0 0 0 0 0 0 0 0 0 0 0 0 0 0 0 0 0 0 0 0 0 0 0 0 0 0 0 0 0 0 0 0 0 0 0 0 0 0 0 0 0 0 0 0 0 0 0 0 0 0 0 0 0 0 0 0 0 0 0 0 0 0 0 0 0 0 0 0 0 0 0 0 0 0 0 0 0 0 0 0 0 0 0 0 0 0 0 0 0 0 0 0 0 0 0 0 0 0 0 0 0 0 0 0 0 0 ];
Traffic[1]class1Average hops = 1 (837064 samples)
traffic_manager/hop_stats_freq = [ 0 837064 0 0 0 0 0 0 0 0 0 0 0 0 0 0 0 0 0 0 ];
----------------------------END-of-Interconnect-DETAILS-------------------------

gpgpu_simulation_time = 0 days, 6 hrs, 50 min, 10 sec (24610 sec)
gpgpu_simulation_rate = 492212 (inst/sec)
gpgpu_simulation_rate = 744 (cycle/sec)
  computing plane 1
kernel '_Z29cuda_cutoff_potential_latticeiiP6float4fffPfi' transfer to GPU hardware scheduler
kernel_name = _Z29cuda_cutoff_potential_latticeiiP6float4fffPfi 
kernel_launch_uid = 2 
gpu_sim_cycle = 22342775
gpu_sim_insn = 14760151048
gpu_ipc =     660.6230
gpu_tot_sim_cycle = 40663176
gpu_tot_sim_insn = 26873499904
gpu_tot_ipc =     660.8805
gpu_tot_issued_cta = 0
gpu_stall_dramfull = 26667
gpu_stall_icnt2sh    = 89121
gpu_total_sim_rate=428741
Cache L1D_000:	Size = 16384 B (32 Set x 4-way x 128 byte line)
		Access = 257950, Miss = 118889 (0.461), PendingHit = 1184 (0.00459)
Cache L1D_001:	Size = 16384 B (32 Set x 4-way x 128 byte line)
		Access = 258620, Miss = 117787 (0.455), PendingHit = 3061 (0.0118)
Cache L1D_002:	Size = 16384 B (32 Set x 4-way x 128 byte line)
		Access = 259290, Miss = 112316 (0.433), PendingHit = 2351 (0.00907)
Cache L1D_003:	Size = 16384 B (32 Set x 4-way x 128 byte line)
		Access = 257950, Miss = 115053 (0.446), PendingHit = 1245 (0.00483)
Cache L1D_004:	Size = 16384 B (32 Set x 4-way x 128 byte line)
		Access = 259290, Miss = 118158 (0.456), PendingHit = 801 (0.00309)
Cache L1D_005:	Size = 16384 B (32 Set x 4-way x 128 byte line)
		Access = 258620, Miss = 118483 (0.458), PendingHit = 1063 (0.00411)
Cache L1D_006:	Size = 16384 B (32 Set x 4-way x 128 byte line)
		Access = 259960, Miss = 114630 (0.441), PendingHit = 2375 (0.00914)
Cache L1D_007:	Size = 16384 B (32 Set x 4-way x 128 byte line)
		Access = 257280, Miss = 114538 (0.445), PendingHit = 1644 (0.00639)
Cache L1D_008:	Size = 16384 B (32 Set x 4-way x 128 byte line)
		Access = 257280, Miss = 117807 (0.458), PendingHit = 1240 (0.00482)
Cache L1D_009:	Size = 16384 B (32 Set x 4-way x 128 byte line)
		Access = 259960, Miss = 122467 (0.471), PendingHit = 500 (0.00192)
Cache L1D_010:	Size = 16384 B (32 Set x 4-way x 128 byte line)
		Access = 259290, Miss = 123160 (0.475), PendingHit = 815 (0.00314)
Cache L1D_011:	Size = 16384 B (32 Set x 4-way x 128 byte line)
		Access = 259960, Miss = 117929 (0.454), PendingHit = 1205 (0.00464)
Cache L1D_012:	Size = 16384 B (32 Set x 4-way x 128 byte line)
		Access = 258620, Miss = 115737 (0.448), PendingHit = 2574 (0.00995)
Cache L1D_013:	Size = 16384 B (32 Set x 4-way x 128 byte line)
		Access = 259290, Miss = 120008 (0.463), PendingHit = 987 (0.00381)
total_dl1_misses=1646962
total_dl1_accesses=3623360
total_dl1_miss_rate= 0.454540
Shader 0 dynamic_warp_id issue ditsribution:
dynamic_warp_id:
0, 1, 2, 3, 4, 5, 6, 7, 8, 9, 10, 11, 12, 13, 14, 15, 16, 17, 18, 19, 20, 21, 22, 23, 24, 25, 26, 27, 28, 29, 30, 31, 32, 33, 34, 35, 36, 37, 38, 39, 40, 41, 42, 43, 44, 45, 46, 47, 48, 49, 50, 51, 52, 53, 54, 55, 56, 57, 58, 59, 60, 61, 62, 63, 64, 65, 66, 67, 68, 69, 70, 71, 72, 73, 74, 75, 76, 77, 78, 79, 80, 81, 82, 83, 84, 85, 86, 87, 88, 89, 90, 91, 92, 93, 94, 95, 96, 97, 98, 99, 100, 101, 102, 103, 104, 105, 106, 107, 108, 109, 110, 111, 112, 113, 114, 115, 116, 117, 118, 119, 120, 121, 122, 123, 124, 125, 126, 127, 128, 129, 130, 131, 132, 133, 134, 135, 136, 137, 138, 139, 140, 141, 142, 143, 144, 145, 146, 147, 148, 149, 150, 151, 152, 153, 154, 155, 156, 157, 158, 159, 160, 161, 162, 163, 164, 165, 166, 167, 168, 169, 170, 171, 172, 173, 174, 175, 176, 177, 178, 179, 180, 181, 182, 183, 184, 185, 186, 187, 188, 189, 190, 191, 192, 193, 194, 195, 196, 197, 198, 199, 200, 201, 202, 203, 204, 205, 206, 207, 208, 209, 210, 211, 212, 213, 214, 215, 216, 217, 218, 219, 220, 221, 222, 223, 224, 225, 226, 227, 228, 229, 230, 231, 232, 233, 234, 235, 236, 237, 238, 239, 240, 241, 242, 243, 244, 245, 246, 247, 248, 249, 250, 251, 252, 253, 254, 255, 256, 257, 258, 259, 260, 261, 262, 263, 264, 265, 266, 267, 268, 269, 270, 271, 272, 273, 274, 275, 276, 277, 278, 279, 280, 281, 282, 283, 284, 285, 286, 287, 288, 289, 290, 291, 292, 293, 294, 295, 296, 297, 298, 299, 300, 301, 302, 303, 304, 305, 306, 307, 308, 309, 310, 311, 312, 313, 314, 315, 316, 317, 318, 319, 320, 321, 322, 323, 324, 325, 326, 327, 328, 329, 330, 331, 332, 333, 334, 335, 336, 337, 338, 339, 340, 341, 342, 343, 344, 345, 346, 347, 348, 349, 350, 351, 352, 353, 354, 355, 356, 357, 358, 359, 360, 361, 362, 363, 364, 365, 366, 367, 368, 369, 370, 371, 372, 373, 374, 375, 376, 377, 378, 379, 380, 381, 382, 383, 384, 385, 386, 387, 388, 389, 390, 391, 392, 393, 394, 395, 396, 397, 398, 399, 400, 401, 402, 403, 404, 405, 406, 407, 408, 409, 410, 411, 412, 413, 414, 415, 416, 417, 418, 419, 420, 421, 422, 423, 424, 425, 426, 427, 428, 429, 430, 431, 432, 433, 434, 435, 436, 437, 438, 439, 440, 441, 442, 443, 444, 445, 446, 447, 448, 449, 450, 451, 452, 453, 454, 455, 456, 457, 458, 459, 460, 461, 462, 463, 464, 465, 466, 467, 468, 469, 470, 471, 472, 473, 474, 475, 476, 477, 478, 479, 480, 481, 482, 483, 484, 485, 486, 487, 488, 489, 490, 491, 492, 493, 494, 495, 496, 497, 498, 499, 500, 501, 502, 503, 504, 505, 506, 507, 508, 509, 510, 511, 512, 513, 514, 515, 516, 517, 518, 519, 520, 521, 522, 523, 524, 525, 526, 527, 528, 529, 530, 531, 532, 533, 534, 535, 536, 537, 538, 539, 540, 541, 542, 543, 544, 545, 546, 547, 548, 549, 550, 551, 552, 553, 554, 555, 556, 557, 558, 559, 560, 561, 562, 563, 564, 565, 566, 567, 568, 569, 570, 571, 572, 573, 574, 575, 576, 577, 578, 579, 580, 581, 582, 583, 584, 585, 586, 587, 588, 589, 590, 591, 592, 593, 594, 595, 596, 597, 598, 599, 600, 601, 602, 603, 604, 605, 606, 607, 608, 609, 610, 611, 612, 613, 614, 615, 616, 617, 618, 619, 620, 621, 622, 623, 624, 625, 626, 627, 628, 629, 630, 631, 632, 633, 634, 635, 636, 637, 638, 639, 640, 641, 642, 643, 644, 645, 646, 647, 648, 649, 650, 651, 652, 653, 654, 655, 656, 657, 658, 659, 660, 661, 662, 663, 664, 665, 666, 667, 668, 669, 670, 671, 672, 673, 674, 675, 676, 677, 678, 679, 680, 681, 682, 683, 684, 685, 686, 687, 688, 689, 690, 691, 692, 693, 694, 695, 696, 697, 698, 699, 700, 701, 702, 703, 704, 705, 706, 707, 708, 709, 710, 711, 712, 713, 714, 715, 716, 717, 718, 719, 720, 721, 722, 723, 724, 725, 726, 727, 728, 729, 730, 731, 732, 733, 734, 735, 736, 737, 738, 739, 740, 741, 742, 743, 744, 745, 746, 747, 748, 749, 750, 751, 752, 753, 754, 755, 756, 757, 758, 759, 760, 761, 762, 763, 764, 765, 766, 767, 768, 769, 770, 771, 772, 773, 774, 775, 776, 777, 778, 779, 780, 781, 782, 783, 784, 785, 786, 787, 788, 789, 790, 791, 792, 793, 794, 795, 796, 797, 798, 799, 800, 801, 802, 803, 804, 805, 806, 807, 808, 809, 810, 811, 812, 813, 814, 815, 816, 817, 818, 819, 820, 821, 822, 823, 824, 825, 826, 827, 828, 829, 830, 831, 832, 833, 834, 835, 836, 837, 838, 839, 840, 841, 842, 843, 844, 845, 846, 847, 848, 849, 850, 851, 852, 853, 854, 855, 856, 857, 858, 859, 860, 861, 862, 863, 864, 865, 866, 867, 868, 869, 870, 871, 872, 873, 874, 875, 876, 877, 878, 879, 880, 881, 882, 883, 884, 885, 886, 887, 888, 889, 890, 891, 892, 893, 894, 895, 896, 897, 898, 899, 900, 901, 902, 903, 904, 905, 906, 907, 908, 909, 910, 911, 912, 913, 914, 915, 916, 917, 918, 919, 920, 921, 922, 923, 924, 925, 926, 927, 928, 929, 930, 931, 932, 933, 934, 935, 936, 937, 938, 939, 940, 941, 942, 943, 944, 945, 946, 947, 948, 949, 950, 951, 952, 953, 954, 955, 956, 957, 958, 959, 960, 961, 962, 963, 964, 965, 966, 967, 968, 969, 970, 971, 972, 973, 974, 975, 976, 977, 978, 979, 980, 981, 982, 983, 984, 985, 986, 987, 988, 989, 990, 991, 992, 993, 994, 995, 996, 997, 998, 999, 1000, 1001, 1002, 1003, 1004, 1005, 1006, 1007, 1008, 1009, 1010, 1011, 1012, 1013, 1014, 1015, 1016, 1017, 1018, 1019, 1020, 1021, 1022, 1023, 1024, 1025, 1026, 1027, 1028, 1029, 1030, 1031, 1032, 1033, 1034, 1035, 1036, 1037, 1038, 1039, 1040, 1041, 1042, 1043, 1044, 1045, 1046, 1047, 1048, 1049, 1050, 1051, 1052, 1053, 1054, 1055, 1056, 1057, 1058, 1059, 1060, 1061, 1062, 1063, 1064, 1065, 1066, 1067, 1068, 1069, 1070, 1071, 1072, 1073, 1074, 1075, 1076, 1077, 1078, 1079, 1080, 1081, 1082, 1083, 1084, 1085, 1086, 1087, 1088, 1089, 1090, 1091, 1092, 1093, 1094, 1095, 1096, 1097, 1098, 1099, 1100, 1101, 1102, 1103, 1104, 1105, 1106, 1107, 1108, 1109, 1110, 1111, 1112, 1113, 1114, 1115, 1116, 1117, 1118, 1119, 1120, 1121, 1122, 1123, 1124, 1125, 1126, 1127, 1128, 1129, 1130, 1131, 1132, 1133, 1134, 1135, 1136, 1137, 1138, 1139, 1140, 1141, 1142, 1143, 1144, 1145, 1146, 1147, 1148, 1149, 1150, 1151, 1152, 1153, 1154, 1155, 1156, 1157, 1158, 1159, 1160, 1161, 1162, 1163, 1164, 1165, 1166, 1167, 1168, 1169, 1170, 1171, 1172, 1173, 1174, 1175, 1176, 1177, 1178, 1179, 1180, 1181, 1182, 1183, 1184, 1185, 1186, 1187, 1188, 1189, 1190, 1191, 1192, 1193, 1194, 1195, 1196, 1197, 1198, 1199, 1200, 1201, 1202, 1203, 1204, 1205, 1206, 1207, 1208, 1209, 1210, 1211, 1212, 1213, 1214, 1215, 1216, 1217, 1218, 1219, 1220, 1221, 1222, 1223, 1224, 1225, 1226, 1227, 1228, 1229, 1230, 1231, 1232, 1233, 1234, 1235, 1236, 1237, 1238, 1239, 1240, 1241, 1242, 1243, 1244, 1245, 1246, 1247, 1248, 1249, 1250, 1251, 1252, 1253, 1254, 1255, 1256, 1257, 1258, 1259, 1260, 1261, 1262, 1263, 1264, 1265, 1266, 1267, 1268, 1269, 1270, 1271, 1272, 1273, 1274, 1275, 1276, 1277, 1278, 1279, 1280, 1281, 1282, 1283, 1284, 1285, 1286, 1287, 1288, 1289, 1290, 1291, 1292, 1293, 1294, 1295, 1296, 1297, 1298, 1299, 1300, 1301, 1302, 1303, 1304, 1305, 1306, 1307, 1308, 1309, 1310, 1311, 1312, 1313, 1314, 1315, 1316, 1317, 1318, 1319, 1320, 1321, 1322, 1323, 1324, 1325, 1326, 1327, 1328, 1329, 1330, 1331, 1332, 1333, 1334, 1335, 1336, 1337, 1338, 1339, 1340, 1341, 1342, 1343, 1344, 1345, 1346, 1347, 1348, 1349, 1350, 1351, 1352, 1353, 1354, 1355, 1356, 1357, 1358, 1359, 1360, 1361, 1362, 1363, 1364, 1365, 1366, 1367, 1368, 1369, 1370, 1371, 1372, 1373, 1374, 1375, 1376, 1377, 1378, 1379, 1380, 1381, 1382, 1383, 1384, 1385, 1386, 1387, 1388, 1389, 1390, 1391, 1392, 1393, 1394, 1395, 1396, 1397, 1398, 1399, 1400, 1401, 1402, 1403, 1404, 1405, 1406, 1407, 1408, 1409, 1410, 1411, 1412, 1413, 1414, 1415, 1416, 1417, 1418, 1419, 1420, 1421, 1422, 1423, 1424, 1425, 1426, 1427, 1428, 1429, 1430, 1431, 1432, 1433, 1434, 1435, 1436, 1437, 1438, 1439, 1440, 1441, 1442, 1443, 1444, 1445, 1446, 1447, 1448, 1449, 1450, 1451, 1452, 1453, 1454, 1455, 1456, 1457, 1458, 1459, 1460, 1461, 1462, 1463, 1464, 1465, 1466, 1467, 1468, 1469, 1470, 1471, 1472, 1473, 1474, 1475, 1476, 1477, 1478, 1479, 1480, 1481, 1482, 1483, 1484, 1485, 1486, 1487, 1488, 1489, 1490, 1491, 1492, 1493, 1494, 1495, 1496, 1497, 1498, 1499, 1500, 1501, 1502, 1503, 1504, 1505, 1506, 1507, 1508, 1509, 1510, 1511, 1512, 1513, 1514, 1515, 1516, 1517, 1518, 1519, 1520, 1521, 1522, 1523, 1524, 1525, 1526, 1527, 1528, 1529, 1530, 1531, 1532, 1533, 1534, 1535, 1536, 1537, 1538, 1539, 
distro:
26494, 27007, 26647, 27232, 27377, 27926, 27521, 28133, 26045, 26432, 26108, 26594, 27147, 27624, 27300, 27777, 27482, 28049, 27599, 28193, 27349, 27997, 27475, 28069, 24679, 24832, 24769, 24949, 31644, 32040, 31842, 32211, 31901, 32243, 32072, 32423, 32603, 33134, 32711, 33314, 32301, 32886, 32463, 33057, 32532, 32982, 32694, 33090, 29254, 29677, 29353, 29884, 17664, 17781, 17700, 17853, 23404, 23584, 23530, 23719, 32921, 33083, 33083, 33308, 37713, 38037, 38010, 38298, 37298, 37595, 37442, 37955, 36735, 37086, 36960, 37320, 37398, 37677, 37596, 37929, 36031, 36265, 36274, 36499, 28611, 28845, 28764, 28998, 42237, 42282, 42543, 42453, 42257, 42239, 42464, 42437, 41984, 42056, 42200, 42281, 42450, 42531, 42693, 42792, 41531, 41540, 41756, 41720, 42646, 42574, 42871, 42826, 22444, 22381, 22588, 22552, 26336, 26291, 26462, 26426, 42867, 42786, 43092, 42993, 42948, 42948, 43209, 43200, 44404, 44395, 44674, 44647, 43755, 43809, 44025, 44106, 42604, 42505, 42757, 42811, 41698, 41707, 41932, 41959, 22378, 22414, 22486, 22495, 32360, 32432, 32540, 32621, 43019, 43073, 43325, 43298, 42749, 42641, 42929, 42956, 44313, 44295, 44520, 44592, 43858, 43903, 44092, 44164, 42616, 42652, 42868, 42904, 38644, 38716, 38932, 38977, 26680, 26770, 26833, 26869, 32431, 32359, 32629, 32575, 42912, 42948, 43191, 43164, 44800, 44719, 44989, 45016, 43101, 43119, 43317, 43344, 42679, 42679, 42904, 42931, 42856, 42892, 43099, 43153, 38984, 39020, 39218, 39290, 37766, 37811, 37991, 38081, 42787, 42760, 43039, 43111, 44345, 44336, 44615, 44561, 43029, 42948, 43299, 43164, 42834, 42861, 43032, 43113, 42941, 42905, 43175, 43130, 33467, 33458, 33611, 33656, 26790, 26835, 26889, 26925, 42309, 42372, 42543, 42633, 43989, 43899, 44214, 44142, 43121, 43112, 43382, 43382, 44505, 44325, 44685, 44667, 43590, 43554, 43797, 43833, 42652, 42751, 42967, 43012, 28198, 28189, 28387, 28306, 43383, 43338, 43671, 43662, 44797, 44806, 45040, 45004, 43609, 43582, 43807, 43789, 44447, 44429, 44744, 44681, 43946, 43901, 44162, 44081, 43348, 43357, 43663, 43591, 22916, 22961, 23051, 23060, 32055, 31992, 32190, 32163, 43018, 43045, 43279, 43270, 43428, 43482, 43707, 43734, 43758, 43695, 44064, 43965, 42966, 42849, 43209, 43110, 43098, 43206, 43395, 43476, 38720, 38603, 38963, 38846, 23061, 23007, 23223, 23169, 37499, 37535, 37742, 37760, 44369, 44306, 44630, 44567, 44058, 43995, 44310, 44238, 43032, 42843, 43302, 43032, 42859, 42877, 43111, 43075, 44370, 44460, 44559, 44775, 33150, 33132, 33366, 33348, 32983, 32965, 33127, 33172, 43871, 43862, 44195, 44141, 42365, 42320, 42554, 42563, 41805, 41634, 42039, 41886, 42327, 42381, 42552, 42642, 43426, 43426, 43687, 43669, 39717, 39753, 39942, 40014, 23243, 23180, 23324, 23315, 38682, 38718, 38907, 39051, 43827, 43782, 44043, 44007, 42011, 41993, 42227, 42182, 42124, 42016, 42403, 42331, 42889, 42898, 43159, 43168, 44239, 44149, 44437, 44347, 34234, 34216, 34441, 34423, 39179, 39269, 39467, 39476, 44127, 44055, 44334, 44334, 41702, 41684, 41891, 41936, 41587, 41668, 41911, 41956, 42450, 42423, 42702, 42585, 43133, 43007, 43421, 43241, 34308, 34290, 34470, 34443, 23033, 23114, 23177, 23186, 44068, 44059, 44248, 44275, 43853, 43727, 44060, 43970, 42447, 42420, 42636, 42672, 43175, 43004, 43346, 43256, 44169, 44223, 44403, 44412, 44628, 44673, 44853, 44853, 23267, 23303, 23366, 23375, 42365, 42392, 42581, 42617, 42851, 42860, 43112, 43067, 42619, 42610, 42907, 42835, 42076, 42094, 42346, 42364, 43102, 43093, 43291, 43363, 43108, 43225, 43360, 43504, 28662, 28707, 28824, 28833, 22679, 22625, 22760, 22742, 32794, 32749, 33028, 32875, 42866, 42830, 43082, 43055, 41829, 41784, 42117, 41982, 41301, 41544, 41625, 41796, 43724, 43715, 43976, 44012, 43800, 43728, 44061, 43971, 38417, 38354, 38624, 38561, 37237, 37273, 37516, 37453, 42570, 42525, 42903, 42750, 43894, 43822, 44047, 44119, 43339, 43537, 43654, 43825, 43855, 44071, 44215, 44296, 42088, 42205, 42295, 42385, 33593, 33494, 33773, 33665, 27124, 27205, 27250, 27358, 38236, 38227, 38407, 38452, 43106, 43295, 43502, 43529, 42464, 42392, 42725, 42608, 43263, 43326, 43470, 43542, 42493, 42412, 42817, 42727, 42176, 42158, 42401, 42383, 34192, 34021, 34372, 34237, 43065, 43110, 43254, 43389, 43490, 43571, 43661, 43751, 42710, 42665, 42917, 42899, 43591, 43474, 43780, 43717, 43173, 43272, 43425, 43533, 43093, 43210, 43291, 43498, 22622, 22685, 22730, 22829, 27174, 27066, 27300, 27219, 42486, 42378, 42657, 42630, 43675, 43747, 43981, 44026, 43392, 43509, 43626, 43734, 44124, 44088, 44394, 44403, 43445, 43409, 43625, 43724, 43328, 43319, 43616, 43526, 24397, 24280, 24550, 24397, 34562, 34364, 34715, 34544, 38446, 38347, 38689, 38482, 38793, 38640, 38973, 38838, 39706, 39625, 39967, 39904, 40522, 40360, 40846, 40486, 38243, 38180, 38504, 38387, 31013, 30815, 31184, 31013, 25815, 25572, 25968, 25743, 32882, 32522, 33080, 32720, 34958, 34580, 35156, 34769, 35709, 35268, 35889, 35421, 35486, 35153, 35774, 35351, 33600, 33294, 33789, 33474, 31111, 30688, 31363, 30787, 22859, 22670, 23021, 22760, 29005, 28501, 29176, 28681, 28713, 28326, 28893, 28488, 30007, 29413, 30133, 29575, 29134, 28666, 29314, 28801, 29703, 29154, 29883, 29262, 29063, 28586, 29180, 28712, 16382, 16067, 16436, 16130, 21021, 20652, 21093, 20742, 23178, 22782, 23304, 22872, 23226, 22749, 23343, 22866, 24188, 23648, 24350, 23738, 24438, 23826, 24573, 23934, 23316, 22893, 23415, 23010, 18925, 18538, 19051, 18628, 24540, 24918, 24612, 25071, 31610, 32240, 31709, 32456, 31476, 32088, 31584, 32250, 31845, 32565, 31926, 32655, 32024, 32609, 32087, 32735, 32438, 33131, 32537, 33212, 28293, 28824, 28383, 28896, 24439, 24727, 24502, 24844, 29363, 29867, 29543, 29957, 38680, 39301, 38842, 39463, 38549, 39116, 38648, 39278, 38680, 39247, 38815, 39454, 39088, 39520, 39232, 39727, 38001, 38478, 38172, 38604, 34410, 34977, 34599, 35130, 44680, 45013, 44896, 45193, 46003, 46552, 46174, 46723, 45622, 46045, 45802, 46225, 46095, 46599, 46248, 46770, 45092, 45515, 45290, 45803, 45728, 46142, 45872, 46358, 29921, 30254, 30029, 30371, 38241, 38394, 38403, 38511, 51107, 51125, 51332, 51422, 53002, 53083, 53119, 53245, 52092, 52155, 52308, 52425, 51554, 51752, 51734, 52022, 52272, 52254, 52389, 52416, 45921, 45975, 46110, 46236, 33350, 33377, 33512, 33548, 53061, 53079, 53421, 53313, 54585, 54558, 54711, 54819, 53280, 53253, 53460, 53460, 52576, 52585, 52783, 52810, 53496, 53496, 53649, 53739, 52010, 52100, 52289, 52298, 31921, 31876, 32002, 32020, 51705, 51768, 51966, 52020, 52245, 52299, 52425, 52479, 53165, 53192, 53345, 53399, 54049, 53950, 54229, 54094, 54391, 54283, 54580, 54535, 53376, 53268, 53583, 53592, 33822, 33786, 34002, 33903, 34173, 34083, 34299, 34209, 53837, 53891, 53945, 54089, 53530, 53467, 53791, 53674, 54007, 53944, 54178, 54232, 54619, 54457, 54727, 54610, 53519, 53519, 53699, 53753, 52835, 52817, 53051, 53033, 32265, 32418, 32418, 32508, 52738, 52702, 52900, 52918, 53980, 54070, 54124, 54223, 53766, 53865, 53964, 54018, 54161, 54044, 54341, 54251, 53840, 53651, 53984, 53867, 53763, 53682, 53907, 53970, 27189, 27180, 27279, 27288, 31864, 31765, 32008, 31864, 54033, 54087, 54312, 54240, 54465, 54528, 54609, 54627, 53217, 53073, 53460, 53325, 54478, 54433, 54703, 54622, 52834, 52762, 52951, 52969, 53765, 53765, 53954, 53927, 39092, 39020, 39209, 39191, 46251, 46305, 46449, 46530, 54953, 54845, 55124, 55097, 53637, 53754, 53790, 53952, 53368, 53422, 53539, 53566, 53866, 53785, 54100, 54046, 47655, 47727, 47880, 47970, 41039, 41084, 41246, 41318, 33007, 33052, 33151, 33115, 54076, 54031, 54283, 54220, 53022, 53076, 53283, 53301, 53303, 53312, 53582, 53510, 52689, 52644, 52914, 52932, 53139, 53184, 53364, 53400, 54335, 54335, 54506, 54506, 46612, 46594, 46783, 46711, 47206, 47242, 47404, 47386, 53881, 53854, 54106, 54106, 52915, 53068, 53131, 53302, 52303, 52168, 52609, 52402, 54227, 54218, 54362, 54434, 41448, 41574, 41583, 41709, 41799, 41790, 41925, 41979, 39635, 39707, 39788, 39905, 52950, 52905, 53121, 53139, 52288, 52234, 52495, 52477, 51206, 51080, 51422, 51350, 52731, 52713, 53037, 52992, 53316, 53262, 53514, 53505, 47192, 47300, 47543, 47462, 52545, 52482, 52779, 52716, 53391, 53463, 53490, 53580, 53833, 54022, 53968, 54220, 51910, 52000, 52108, 52261, 52185, 52158, 52437, 52347, 52504, 52459, 52729, 52693, 34630, 34639, 34738, 34756, 27387, 27414, 27423, 27513, 40327, 40336, 40516, 40471, 54917, 54782, 54980, 54953, 51785, 51677, 51983, 51893, 53498, 53453, 53615, 53606, 53829, 53847, 53955, 54063, 54841, 54877, 55012, 55003, 48289, 48352, 48613, 48523, 46322, 46538, 46610, 46727, 52919, 52991, 53108, 53189, 53431, 53539, 53656, 53782, 52025, 51926, 52205, 52160, 52310, 52238, 52580, 52481, 53807, 53879, 54005, 54131, 40338, 40473, 40536, 40617, 27460, 27469, 27577, 27523, 46900, 46999, 47116, 47161, 52710, 52674, 52935, 52863, 52385, 52457, 52673, 52646, 51099, 51099, 51288, 51387, 52719, 52782, 52917, 53043, 52924, 52834, 53176, 53050, 40575, 40602, 40737, 40719, 39549, 39423, 39711, 39558, 46575, 46431, 46773, 46665, 53076, 53103, 53265, 53319, 53048, 52994, 53246, 53237, 51478, 51478, 51667, 51676, 52837, 52747, 53053, 52963, 47245, 47218, 47479, 47425, 40575, 40530, 40737, 40701, 52033, 51961, 52267, 52213, 52574, 52574, 52754, 52835, 52287, 52323, 52557, 52557, 52466, 52457, 52655, 52673, 53124, 53025, 53331, 53259, 51945, 51918, 52224, 52107, 33920, 33974, 34118, 34154, 46494, 46494, 46629, 46701, 51193, 51094, 51382, 51391, 53565, 53547, 53736, 53754, 53296, 53332, 53512, 53548, 53710, 53746, 53899, 53962, 52649, 52829, 52991, 53063, 41514, 41415, 41721, 41595, 33720, 33702, 33810, 33891, 53113, 53005, 53257, 53320, 54144, 54117, 54360, 54234, 52314, 52458, 52575, 52728, 53842, 53752, 54076, 53995, 52936, 53044, 53206, 53233, 52625, 52697, 52877, 52940, 27141, 27159, 27222, 27240, 51623, 51776, 51857, 51938, 52142, 52034, 52331, 52313, 54683, 54620, 54899, 54818, 54532, 54631, 54685, 54910, 53613, 53793, 53928, 53964, 53953, 54061, 54232, 54250, 34302, 34401, 34356, 34455, 34473, 34572, 34563, 34617, 46040, 46004, 46283, 46202, 48189, 47928, 48315, 48126, 48648, 48378, 48855, 48585, 49226, 48866, 49379, 49055, 47679, 47481, 47886, 47742, 48156, 47931, 48399, 48138, 30817, 30646, 30943, 30826, 41937, 41226, 42135, 41361, 41220, 40698, 41418, 40833, 41760, 41238, 41976, 41382, 42071, 41567, 42260, 41774, 42458, 41882, 42701, 42053, 41275, 40798, 41464, 40996, 22787, 22346, 22823, 22373, 26421, 25971, 26574, 26070, 34549, 34027, 34702, 34180, 35160, 34629, 35268, 34683, 35721, 35028, 35883, 35118, 35591, 34916, 35699, 34988, 35739, 34902, 35892, 35010, 31276, 30781, 31510, 30961, 19355, 19040, 19391, 19094, 27964, 27397, 28063, 27469, 28171, 27532, 28297, 27568, 28667, 27992, 28775, 28037, 28209, 27453, 28317, 27606, 28479, 27705, 28578, 27858, 27953, 27305, 28061, 27359, 
gpgpu_n_tot_thrd_icount = 28723572160
gpgpu_n_tot_w_icount = 897611630
gpgpu_n_icache_hits = 487237860
gpgpu_n_icache_misses = 2032
gpgpu_n_l1dcache_read_hits = 1955353
gpgpu_n_l1dcache_read_misses = 1668007
gpgpu_n_l1dcache_write_accesses = 21632
gpgpu_n_l1dcache_wirte_misses = 21632
gpgpu_n_tcache_hits = 0
gpgpu_n_tcache_misses = 0
gpgpu_n_ccache_hits = 40998269
gpgpu_n_ccache_misses = 4081
gpgpu_n_stall_shd_mem = 4180700
gpgpu_n_mem_read_local = 0
gpgpu_n_mem_write_local = 0
gpgpu_n_mem_read_global = 1646962
gpgpu_n_mem_write_global = 21632
gpgpu_n_mem_texture = 0
gpgpu_n_mem_const = 924
gpgpu_n_load_insn  = 115947520
gpgpu_n_store_insn = 1384448
gpgpu_n_shmem_insn = -159355968
gpgpu_n_tex_insn = 0
gpgpu_n_const_mem_insn = 175305728
gpgpu_n_param_mem_insn = -2053555264
gpgpu_n_shmem_bkconflict = 0
gpgpu_n_cache_bkconflict = 0
gpgpu_n_intrawarp_mshr_merge = 0
gpgpu_n_cmem_portconflict = 567840
gpgpu_stall_shd_mem[c_mem][bk_conf] = 567840
gpgpu_stall_shd_mem[c_mem][mshr_rc] = 0
gpgpu_stall_shd_mem[c_mem][icnt_rc] = 0
gpgpu_stall_shd_mem[t_mem][mshr_rc] = 0
gpgpu_stall_shd_mem[t_mem][icnt_rc] = 0
gpgpu_stall_shd_mem[s_mem][bk_conf] = 1806272
gpgpu_stall_shd_mem[gl_mem][bk_conf] = 0
gpgpu_stall_shd_mem[gl_mem][coal_stall] = 1806588
gpgpu_stall_shd_mem[g_mem_ld][mshr_rc] = 0
gpgpu_stall_shd_mem[g_mem_ld][icnt_rc] = 0
gpgpu_stall_shd_mem[g_mem_ld][wb_icnt_rc] = 0
gpgpu_stall_shd_mem[g_mem_ld][wb_rsrv_fail] = 0
gpgpu_stall_shd_mem[g_mem_st][mshr_rc] = 0
gpgpu_stall_shd_mem[g_mem_st][icnt_rc] = 0
gpgpu_stall_shd_mem[g_mem_st][wb_icnt_rc] = 0
gpgpu_stall_shd_mem[g_mem_st][wb_rsrv_fail] = 0
gpgpu_stall_shd_mem[l_mem_ld][mshr_rc] = 0
gpgpu_stall_shd_mem[l_mem_ld][icnt_rc] = 0
gpgpu_stall_shd_mem[l_mem_ld][wb_icnt_rc] = 0
gpgpu_stall_shd_mem[l_mem_ld][wb_rsrv_fail] = 0
gpgpu_stall_shd_mem[l_mem_st][mshr_rc] = 0
gpgpu_stall_shd_mem[l_mem_st][icnt_rc] = 0
gpgpu_stall_shd_mem[l_mem_ld][wb_icnt_rc] = 0
gpgpu_stall_shd_mem[l_mem_ld][wb_rsrv_fail] = 0
gpu_reg_bank_conflict_stalls = 0
Warp Occupancy Distribution:
Stall:27093544	W0_Idle:202409	W0_Scoreboard:211612129	W1:2739969	W2:1854549	W3:2044566	W4:1984113	W5:1268649	W6:1913121	W7:1053396	W8:1998522	W9:1108584	W10:1375506	W11:1064574	W12:1645200	W13:1041615	W14:1547163	W15:1045179	W16:1922152	W17:946719	W18:1370475	W19:944073	W20:1519083	W21:1011402	W22:1481094	W23:965808	W24:1666557	W25:974601	W26:1374714	W27:874305	W28:1767222	W29:1405089	W30:1393398	W31:2522763	W32:851787469
maxmrqlatency = 63 
maxdqlatency = 0 
maxmflatency = 554 
averagemflatency = 130 
max_icnt2mem_latency = 273 
max_icnt2sh_latency = 40663175 
mrq_lat_table:25844 	11183 	3910 	9378 	7124 	193 	0 	0 	0 	0 	0 	0 	0 	0 	0 	0 	0 	0 	0 	0 	0 	0 	0 	0 	0 	0 	0 	0 	0 	0 	0 	0 	
dq_lat_table:0 	0 	0 	0 	0 	0 	0 	0 	0 	0 	0 	0 	0 	0 	0 	0 	0 	0 	0 	0 	0 	0 	0 	0 	0 	0 	0 	0 	0 	0 	0 	0 	
mf_lat_table:0 	0 	0 	0 	0 	0 	783915 	877028 	8573 	2 	0 	0 	0 	0 	0 	0 	0 	0 	0 	0 	0 	0 	0 	0 	0 	0 	0 	0 	0 	0 	0 	0 	
icnt2mem_lat_table:132 	1644442 	23327 	367 	390 	384 	450 	192 	16 	0 	0 	0 	0 	0 	0 	0 	0 	0 	0 	0 	0 	0 	0 	0 	
icnt2sh_lat_table:0 	797512 	837265 	13089 	20 	0 	0 	0 	0 	0 	0 	0 	0 	0 	0 	0 	0 	168 	168 	352 	656 	1180 	2296 	4696 	
mf_lat_pw_table:8392 	3724 	0 	0 	0 	0 	50277 	22672 	61 	0 	0 	0 	0 	0 	0 	0 	0 	0 	0 	0 	0 	0 	0 	0 	0 	0 	0 	0 	0 	0 	0 	0 	
maximum concurrent accesses to same row:
dram[0]:        64        64        64        64        64        64        64        64        64        64        64        64        64        64        64        64 
dram[1]:        64        64        64        64        64        64        64        64        64        64        64        64        64        64        64        64 
dram[2]:        64        64        64        64        64        64        64        64        64        64        64        64        64        64        64        64 
dram[3]:        64        64        64        64        64        64        64        64        64        64        64        64        64        64        64        64 
dram[4]:        64        64        64        64        64        64        64        64        64        64        64        64        64        64        64        64 
maximum service time to same row:
dram[0]:   5786234   5492278   5853519   5553700   5761830   5190918   5665677   5600320   5638210   5635631   5443844   5693960   5494017   5578184   5195810   5728573 
dram[1]:   5786230   5492278   5853527   5553634   5761836   5292409   5665675   5600322   5638218   5635635   5443844   5693960   5488547   5578184   5081216   5728571 
dram[2]:   5779850   5497484   5858799   5548096   5759384   5333520   5664605   5609208   5637820   5641901   5415826   5691352   5488603   5578194   5050424   5719883 
dram[3]:   5779854   5497484   5858793   5570700   5775902   5213492   5664603   5609186   5636780   5641907   5415820   5691352   5483725   5578198   5390836   5719881 
dram[4]:   5758770   5472104   5862497   5644598   5782390   5331924   5459883   5617946   5632358   5636643   5410338   5741334   5605253   5582426   5329282   5640783 
average row accesses per activate:
dram[0]:  8.918605  8.911392  7.333333  9.915493 27.916666 12.218182 11.586206 11.047619 10.352942  8.564706 10.869565 14.720000 14.153846 13.851851 13.473684  9.253012 
dram[1]:  9.948052  8.380953  7.822222  8.481928 24.000000 14.297873 12.923077 10.707692 10.352942  7.428571 10.108109 15.659575 13.886792 13.851851 13.016949  8.439561 
dram[2]:  8.511111  8.585366  8.691358  8.186047 24.000000 12.444445 12.218182 11.079365  9.777778  8.878049 10.246575 14.720000 14.431373 12.229508 13.473684  8.439561 
dram[3]:  9.329268  8.585366  8.186047  8.585366 25.846153 12.000000 11.586206 11.633333 10.202899  8.611765  9.973333 14.153846 14.720000 13.814815 18.731707  8.084210 
dram[4]:  8.260870  8.481928  7.569892  8.433735 22.400000 12.000000 11.200000 11.633333  9.915493  8.133333 10.685715 14.153846 12.912281 12.500000 15.058824  8.827586 
average row locality = 57632/5344 = 10.784431
number of total memory accesses made:
dram[0]:         0         0         0         0         0         0         0         0         0         0         0         0         0         0         0         0 
dram[1]:         0         0         0         0         0         0         0         0         0         0         0         0         0         0         0         0 
dram[2]:         0         0         0         0         0         0         0         0         0         0         0         0         0         0         0         0 
dram[3]:         0         0         0         0         0         0         0         0         0         0         0         0         0         0         0         0 
dram[4]:         0         0         0         0         0         0         0         0         0         0         0         0         0         0         0         0 
total accesses: 0
min_bank_accesses = 0!
min_chip_accesses = 0!
number of total read accesses:
dram[0]:       485       448       448       448       414       416       416       440       448       460       462       448       448       460       480       480 
dram[1]:       484       448       448       448       416       416       416       440       448       460       460       448       448       460       480       480 
dram[2]:       484       448       448       448       416       416       416       442       448       460       460       448       448       458       480       480 
dram[3]:       483       448       448       448       416       416       416       442       448       462       460       448       448       458       480       480 
dram[4]:       480       448       448       444       416       416       416       442       448       462       460       448       448       462       480       480 
total reads: 36000
bank skew: 485/414 = 1.17
chip skew: 7201/7198 = 1.00
number of total write accesses:
dram[0]:       282       256       256       256       256       256       256       256       256       268       288       288       288       288       288       288 
dram[1]:       282       256       256       256       256       256       256       256       256       268       288       288       288       288       288       288 
dram[2]:       282       256       256       256       256       256       256       256       256       268       288       288       288       288       288       288 
dram[3]:       282       256       256       256       256       256       256       256       256       270       288       288       288       288       288       288 
dram[4]:       280       256       256       256       256       256       256       256       256       270       288       288       288       288       288       288 
total reads: 21632
bank skew: 288/256 = 1.12
chip skew: 4328/4326 = 1.00
average mf latency per bank:
dram[0]:       3630      4309      4887      3082      2992      4398      3741      3425      4855      4172      2893      3839      3706      2402      3860      4513
dram[1]:       3629      4305      4875      3062      2998      4410      3731      3440      4865      4165      2899      3863      3682      2395      3876      4509
dram[2]:       3648      4277      4875      3101      2957      4415      3751      3408      4848      4206      2912      3842      3713      2398      3845      4519
dram[3]:       3660      4250      4886      3147      2941      4389      3781      3397      4834      4209      2913      3835      3746      2387      3799      4530
dram[4]:       3684      4280      4877      3145      2954      4383      3762      3398      4837      4190      2906      3826      3733      2383      3809      4527
maximum mf latency per bank:
dram[0]:        290       332       265       266       356       424       265       333       434       266       414       440       281       464       388       266
dram[1]:        328       297       272       265       385       337       266       425       373       266       386       378       267       387       414       268
dram[2]:        274       266       265       265       455       431       271       482       319       265       406       376       266       296       511       266
dram[3]:        398       315       287       266       392       304       266       554       324       264       326       367       295       420       361       283
dram[4]:        307       275       266       266       418       327       264       392       289       266       416       352       282       483       327       266

Number of Memory Banks Accessed per Memory Operation per Warp (from 0):
0	0	0	0	0	0	0	0	0	0	0	0	0	0	0	0	0	0	0	0	0	0	0	0	0	0	0	0	0	0	0	0	0	0	0	0	0	0	0	0	0	0	0	0	0	0	0	0	0	0	0	0	0	0	0	0	0	0	0	0	0	0	0	0	0	0	0	0	0	0	0	0	0	0	0	0	0	0	0	0	
Average # of Memory Banks Accessed per Memory Operation per Warp=-nan

position of mrq chosen
0	0	0	0	0	0	0	0	0	0	0	0	0	0	0	0	

average position of mrq chosen = -nan
gpgpu_l2_write_miss = 0
gpgpu_l2_write_access = 0
gpgpu_l2_read_miss = 0
gpgpu_l2_read_access = 0
Cache L2_bank_000:
MSHR contents
MSHR: tag=0x802a3780, atomic=0 1 entries : 0x899faf0 :  mf: uid=531909182, sid12:w03, part=0, addr=0x802a3780, load , size=128, unknown  status = IN_PARTITION_DRAM (40663175), 

DRAM[0]: 16 bks, busW=4 BL=8 CL=12, tRRD=2 tCCD=6, tRCD=12 tRAS=28 tRP=12 tRC=40
n_cmd=60994761 n_nop=60969622 n_act=1051 n_pre=1035 n_req=11527 n_rd=14401 n_write=8652 bw_util=0.0007559
n_activity=200320 dram_eff=0.2302
bk0: 969a 60988726i bk1: 896a 60988778i bk2: 896a 60988859i bk3: 896a 60989155i bk4: 828a 60988464i bk5: 832a 60988602i bk6: 832a 60988104i bk7: 880a 60988351i bk8: 896a 60987157i bk9: 920a 60987636i bk10: 924a 60987791i bk11: 896a 60989133i bk12: 896a 60985972i bk13: 920a 60985705i bk14: 960a 60984904i bk15: 960a 60961296i 
dram_util_bins: 0 0 0 0 0 0 0 0 0 0
dram_eff_bins: 0 0 0 0 0 0 0 0 0 0
mrqq: max=5 avg=0.00139186
Cache L2_bank_001:
MSHR contents

DRAM[1]: 16 bks, busW=4 BL=8 CL=12, tRRD=2 tCCD=6, tRCD=12 tRAS=28 tRP=12 tRC=40
n_cmd=60994761 n_nop=60969583 n_act=1071 n_pre=1055 n_req=11526 n_rd=14400 n_write=8652 bw_util=0.0007559
n_activity=200927 dram_eff=0.2295
bk0: 968a 60988961i bk1: 896a 60989121i bk2: 896a 60989290i bk3: 896a 60988869i bk4: 832a 60988292i bk5: 832a 60988320i bk6: 832a 60988666i bk7: 880a 60988306i bk8: 896a 60987387i bk9: 920a 60987278i bk10: 920a 60987782i bk11: 896a 60989114i bk12: 896a 60986005i bk13: 920a 60985492i bk14: 960a 60984638i bk15: 960a 60960678i 
dram_util_bins: 0 0 0 0 0 0 0 0 0 0
dram_eff_bins: 0 0 0 0 0 0 0 0 0 0
mrqq: max=5 avg=0.00140266
Cache L2_bank_002:
MSHR contents

DRAM[2]: 16 bks, busW=4 BL=8 CL=12, tRRD=2 tCCD=6, tRCD=12 tRAS=28 tRP=12 tRC=40
n_cmd=60994761 n_nop=60969571 n_act=1077 n_pre=1061 n_req=11526 n_rd=14400 n_write=8652 bw_util=0.0007559
n_activity=201288 dram_eff=0.229
bk0: 968a 60988901i bk1: 896a 60988479i bk2: 896a 60988892i bk3: 896a 60989084i bk4: 832a 60988218i bk5: 832a 60988199i bk6: 832a 60988167i bk7: 884a 60988729i bk8: 896a 60987380i bk9: 920a 60987443i bk10: 920a 60987632i bk11: 896a 60989172i bk12: 896a 60986065i bk13: 916a 60985657i bk14: 960a 60984999i bk15: 960a 60960921i 
dram_util_bins: 0 0 0 0 0 0 0 0 0 0
dram_eff_bins: 0 0 0 0 0 0 0 0 0 0
mrqq: max=5 avg=0.00140945
Cache L2_bank_003:
MSHR contents

DRAM[3]: 16 bks, busW=4 BL=8 CL=12, tRRD=2 tCCD=6, tRCD=12 tRAS=28 tRP=12 tRC=40
n_cmd=60994761 n_nop=60969611 n_act=1054 n_pre=1038 n_req=11529 n_rd=14402 n_write=8656 bw_util=0.0007561
n_activity=200837 dram_eff=0.2296
bk0: 966a 60988660i bk1: 896a 60988827i bk2: 896a 60989060i bk3: 896a 60988976i bk4: 832a 60988154i bk5: 832a 60988581i bk6: 832a 60988634i bk7: 884a 60988672i bk8: 896a 60987176i bk9: 924a 60987482i bk10: 920a 60987537i bk11: 896a 60989077i bk12: 896a 60985827i bk13: 916a 60985790i bk14: 960a 60985082i bk15: 960a 60960966i 
dram_util_bins: 0 0 0 0 0 0 0 0 0 0
dram_eff_bins: 0 0 0 0 0 0 0 0 0 0
mrqq: max=7 avg=0.0014072
Cache L2_bank_004:
MSHR contents
MSHR: tag=0x802a3680, atomic=0 1 entries : 0x899f890 :  mf: uid=531909181, sid12:w01, part=4, addr=0x802a3680, load , size=128, unknown  status = IN_PARTITION_DRAM (40663175), 

DRAM[4]: 16 bks, busW=4 BL=8 CL=12, tRRD=2 tCCD=6, tRCD=12 tRAS=28 tRP=12 tRC=40
n_cmd=60994761 n_nop=60969539 n_act=1096 n_pre=1080 n_req=11524 n_rd=14394 n_write=8652 bw_util=0.0007557
n_activity=202171 dram_eff=0.228
bk0: 958a 60988865i bk1: 896a 60988663i bk2: 896a 60989225i bk3: 888a 60989282i bk4: 832a 60988363i bk5: 832a 60988190i bk6: 832a 60988518i bk7: 884a 60988646i bk8: 896a 60987242i bk9: 924a 60987128i bk10: 920a 60987552i bk11: 896a 60989227i bk12: 896a 60985933i bk13: 924a 60985439i bk14: 960a 60985093i bk15: 960a 60960177i 
dram_util_bins: 0 0 0 0 0 0 0 0 0 0
dram_eff_bins: 0 0 0 0 0 0 0 0 0 0
mrqq: max=5 avg=0.00139905
Cache L2_bank_000:	Size = 131072 B (64 Set x 16-way x 128 byte line)
		Access = 333959, Miss = 7201 (0.0216), PendingHit = 790 (0.00237)
Cache L2_bank_001:	Size = 131072 B (64 Set x 16-way x 128 byte line)
		Access = 333889, Miss = 7200 (0.0216), PendingHit = 759 (0.00227)
Cache L2_bank_002:	Size = 131072 B (64 Set x 16-way x 128 byte line)
		Access = 333996, Miss = 7200 (0.0216), PendingHit = 786 (0.00235)
Cache L2_bank_003:	Size = 131072 B (64 Set x 16-way x 128 byte line)
		Access = 333949, Miss = 7201 (0.0216), PendingHit = 784 (0.00235)
Cache L2_bank_004:	Size = 131072 B (64 Set x 16-way x 128 byte line)
		Access = 333907, Miss = 7198 (0.0216), PendingHit = 791 (0.00237)
L2 Cache Total Miss Rate = 0.022

icnt_total_pkts_mem_to_simt=8260124
icnt_total_pkts_simt_to_mem=1756228

LD_mem_lat_dist  0 0 0 0 0 0 0 0 0 0 0 0 0 0 0 0 0 0 0 0 0 0 0 0 0 0 0
ST_mem_lat_dist  0 0 0 0 0 0 0 0 0 0 0 0 0 0 0 0 0 0 0 0 0 0 0 0 0 0 0
Traffic 0 Stat
%=================================
% Average latency = 1.07093
% Accepted packets = 0 at node 0 (avg = 0.000852235)
lat(3) = 1.07093;
thru(3,:) = [ 0 0 0 0 0 0 0 0 0 0 0 0 0 0 0.00391863 0.00391921 0.00392234 0.0039214 0.00391984 0 0 0 0 ];
% latency change    = 5.38515
% throughput change = 4.76461
Traffic 1 Stat
%=================================
% Average latency = 6.80203
% Accepted packets = 0 at node 14 (avg = 0.00400861)
lat(4) = 6.80203;
thru(4,:) = [ 0.00643593 0.00665412 0.006293 0.00662615 0.00634615 0.00652878 0.00631851 0.00634619 0.0067913 0.00693146 0.00694802 0.00659782 0.00653155 0.00684899 0 0 0 0 0 0 0 0 0 ];
% latency change    = 0.842556
% throughput change = 0.787399
----------------------------Interconnect-DETAILS---------------------------------=======Traffic[0]class0 ======
Traffic[0]class0Overall average latency = 1.08086 (2 samples)
Traffic[0]class0Overall average accepted rate = 0.00094842 (2 samples)
Traffic[0]class0Overall min accepted rate = 0 (2 samples)
traffic_manager/latency_stat_0_freq = [ 0 817735 3613 147 109 7412 1102 384 1579 397 104 11 2 3 1 3 1 0 0 1 0 2 0 0 0 0 0 0 0 0 0 0 0 0 0 0 0 2 0 2 0 0 0 0 0 1 0 0 0 0 0 1 0 3 0 4 0 2 0 0 0 0 0 1 0 1 0 0 0 0 0 0 0 0 0 1 0 1 0 5 0 0 0 1 0 1 0 2 0 2 0 0 0 0 0 0 0 0 0 0 0 0 0 0 0 0 0 0 0 0 0 0 0 0 0 0 0 0 0 0 0 0 0 0 0 0 0 0 0 0 0 0 0 0 0 0 0 0 0 0 0 0 0 0 0 0 0 0 0 0 0 0 0 0 0 0 0 0 0 0 0 0 0 0 0 0 0 0 0 0 0 0 0 0 0 0 0 0 0 0 0 0 0 0 0 0 0 0 0 0 0 0 0 0 0 0 0 0 0 0 0 0 0 0 0 0 0 0 0 0 0 0 0 0 0 0 0 0 0 0 0 0 0 0 0 0 0 0 0 0 0 0 0 0 0 0 0 0 0 0 0 0 0 0 0 0 0 0 0 0 0 0 0 0 0 0 0 0 0 0 0 0 0 0 0 0 0 0 0 0 0 0 0 0 0 0 0 0 0 0 0 0 0 0 0 0 0 0 0 0 0 0 0 0 0 0 0 0 0 0 0 0 0 0 0 0 0 0 0 0 0 0 0 0 0 0 0 0 0 0 0 0 0 0 0 0 0 0 0 0 0 0 0 0 0 0 0 0 0 0 0 0 0 0 0 0 0 0 0 0 0 0 0 0 0 0 0 0 0 0 0 0 0 0 0 0 0 0 0 0 0 0 0 0 0 0 0 0 0 0 0 0 0 0 0 0 0 0 0 0 0 0 0 0 0 0 0 0 0 0 0 0 0 0 0 0 0 0 0 0 0 0 0 0 0 0 0 0 0 0 0 0 0 0 0 0 0 0 0 0 0 0 0 0 0 0 0 0 0 0 0 0 0 0 0 0 0 0 0 0 0 0 0 0 0 0 0 0 0 0 0 0 0 0 0 0 0 0 0 0 0 0 0 0 0 0 0 0 0 0 0 0 0 0 0 0 0 0 0 0 0 0 0 0 0 0 0 0 0 0 0 0 0 0 0 0 0 0 0 0 0 0 0 0 0 0 0 0 0 0 0 0 0 0 0 0 0 0 0 0 0 0 0 0 0 0 0 0 0 0 0 0 0 0 0 0 0 0 0 0 0 0 0 0 0 0 0 0 0 0 0 0 0 0 0 0 0 0 0 0 0 0 0 0 0 0 0 0 0 0 0 0 0 0 0 0 0 0 0 0 0 0 0 0 0 0 0 0 0 0 0 0 0 0 0 0 0 0 0 0 0 0 0 0 0 0 0 0 0 0 0 0 0 0 0 0 0 0 0 0 0 0 0 0 0 0 0 0 0 0 0 0 0 0 0 0 0 0 0 0 0 0 0 0 0 0 0 0 0 0 0 0 0 0 0 0 0 0 0 0 0 0 0 0 0 0 0 0 0 0 0 0 0 0 0 0 0 0 0 0 0 0 0 0 0 0 0 0 0 0 0 0 0 0 0 0 0 0 0 0 0 0 0 0 0 0 0 0 0 0 0 0 0 0 0 0 0 0 0 0 0 0 0 0 0 0 0 0 0 0 0 0 0 0 0 0 0 0 0 0 0 0 0 0 0 0 0 0 0 0 0 0 0 0 0 0 0 0 0 0 0 0 0 0 0 0 0 0 0 0 0 0 0 0 0 0 0 0 0 0 0 0 0 0 0 0 0 0 0 0 0 0 0 0 0 0 0 0 0 0 0 0 0 0 0 0 0 0 0 0 0 0 0 0 0 0 0 0 0 0 0 0 0 0 0 0 0 0 0 0 0 0 0 0 0 0 0 0 0 0 0 0 0 0 0 0 0 0 0 0 0 0 0 0 0 0 0 0 0 0 0 0 0 0 0 0 0 0 0 0 0 0 0 0 0 0 0 0 0 0 0 0 0 0 0 0 0 0 0 0 0 0 0 0 0 0 0 0 0 0 0 0 0 0 0 0 0 0 0 0 0 0 0 0 0 0 0 0 0 0 0 0 0 0 0 0 0 0 0 0 0 0 0 0 0 0 0 0 0 0 0 0 0 0 0 0 0 0 0 0 0 0 0 0 0 0 0 0 0 0 0 0 0 0 0 0 0 0 0 0 0 0 0 0 0 0 0 0 0 0 0 0 0 0 0 0 0 0 0 0 ];
Traffic[0]class1Average hops = 1 (1669700 samples)
traffic_manager/hop_stats_freq = [ 0 1669700 0 0 0 0 0 0 0 0 0 0 0 0 0 0 0 0 0 0 ];
=======Traffic[1]class0 ======
Traffic[1]class0Overall average latency = 6.82006 (2 samples)
Traffic[1]class0Overall average accepted rate = 0.0044607 (2 samples)
Traffic[1]class0Overall min accepted rate = 0 (2 samples)
traffic_manager/latency_stat_0_freq = [ 0 10541 67 32 57 391124 7986 10982 339828 18531 6449 6011 14844 6931 13701 606 2534 550 616 428 260 156 196 45 75 23 21 16 11 9 2 0 2 0 0 1 1 0 0 0 0 0 0 0 0 0 0 0 0 0 0 0 0 0 0 0 0 0 0 0 0 0 0 0 0 0 0 0 0 0 0 0 0 0 0 0 0 0 0 0 0 0 0 0 0 0 0 0 0 0 0 0 0 0 0 0 0 0 0 0 0 0 0 0 0 0 0 0 0 0 0 0 0 0 0 0 0 0 0 0 0 0 0 0 0 0 0 0 0 0 0 0 0 0 0 0 0 0 0 0 0 0 0 0 0 0 0 0 0 0 0 0 0 0 0 0 0 0 0 0 0 0 0 0 0 0 0 0 0 0 0 0 0 0 0 0 0 0 0 0 0 0 0 0 0 0 0 0 0 0 0 0 0 0 0 0 0 0 0 0 0 0 0 0 0 0 0 0 0 0 0 0 0 0 0 0 0 0 0 0 0 0 0 0 0 0 0 0 0 0 0 0 0 0 0 0 0 0 0 0 0 0 0 0 0 0 0 0 0 0 0 0 0 0 0 0 0 0 0 0 0 0 0 0 0 0 0 0 0 0 0 0 0 0 0 0 0 0 0 0 0 0 0 0 0 0 0 0 0 0 0 0 0 0 0 0 0 0 0 0 0 0 0 0 0 0 0 0 0 0 0 0 0 0 0 0 0 0 0 0 0 0 0 0 0 0 0 0 0 0 0 0 0 0 0 0 0 0 0 0 0 0 0 0 0 0 0 0 0 0 0 0 0 0 0 0 0 0 0 0 0 0 0 0 0 0 0 0 0 0 0 0 0 0 0 0 0 0 0 0 0 0 0 0 0 0 0 0 0 0 0 0 0 0 0 0 0 0 0 0 0 0 0 0 0 0 0 0 0 0 0 0 0 0 0 0 0 0 0 0 0 0 0 0 0 0 0 0 0 0 0 0 0 0 0 0 0 0 0 0 0 0 0 0 0 0 0 0 0 0 0 0 0 0 0 0 0 0 0 0 0 0 0 0 0 0 0 0 0 0 0 0 0 0 0 0 0 0 0 0 0 0 0 0 0 0 0 0 0 0 0 0 0 0 0 0 0 0 0 0 0 0 0 0 0 0 0 0 0 0 0 0 0 0 0 0 0 0 0 0 0 0 0 0 0 0 0 0 0 0 0 0 0 0 0 0 0 0 0 0 0 0 0 0 0 0 0 0 0 0 0 0 0 0 0 0 0 0 0 0 0 0 0 0 0 0 0 0 0 0 0 0 0 0 0 0 0 0 0 0 0 0 0 0 0 0 0 0 0 0 0 0 0 0 0 0 0 0 0 0 0 0 0 0 0 0 0 0 0 0 0 0 0 0 0 0 0 0 0 0 0 0 0 0 0 0 0 0 0 0 0 0 0 0 0 0 0 0 0 0 0 0 0 0 0 0 0 0 0 0 0 0 0 0 0 0 0 0 0 0 0 0 0 0 0 0 0 0 0 0 0 0 0 0 0 0 0 0 0 0 0 0 0 0 0 0 0 0 0 0 0 0 0 0 0 0 0 0 0 0 0 0 0 0 0 0 0 0 0 0 0 0 0 0 0 0 0 0 0 0 0 0 0 0 0 0 0 0 0 0 0 0 0 0 0 0 0 0 0 0 0 0 0 0 0 0 0 0 0 0 0 0 0 0 0 0 0 0 0 0 0 0 0 0 0 0 0 0 0 0 0 0 0 0 0 0 0 0 0 0 0 0 0 0 0 0 0 0 0 0 0 0 0 0 0 0 0 0 0 0 0 0 0 0 0 0 0 0 0 0 0 0 0 0 0 0 0 0 0 0 0 0 0 0 0 0 0 0 0 0 0 0 0 0 0 0 0 0 0 0 0 0 0 0 0 0 0 0 0 0 0 0 0 0 0 0 0 0 0 0 0 0 0 0 0 0 0 0 0 0 0 0 0 0 0 0 0 0 0 0 0 0 0 0 0 0 0 0 0 0 0 0 0 0 0 0 0 0 0 0 0 0 0 0 0 0 0 0 0 0 0 0 0 0 0 0 0 0 0 0 0 0 0 0 0 0 0 0 0 0 0 0 0 0 0 0 0 0 0 0 0 0 0 0 0 0 0 0 0 0 0 0 0 0 0 0 0 0 0 0 0 0 0 0 0 0 0 0 0 0 0 0 0 0 0 0 0 0 0 0 0 0 0 0 0 0 0 0 0 0 0 0 0 0 0 0 0 0 0 0 ];
Traffic[1]class1Average hops = 1 (1669700 samples)
traffic_manager/hop_stats_freq = [ 0 1669700 0 0 0 0 0 0 0 0 0 0 0 0 0 0 0 0 0 0 ];
----------------------------END-of-Interconnect-DETAILS-------------------------

gpgpu_simulation_time = 0 days, 17 hrs, 24 min, 40 sec (62680 sec)
gpgpu_simulation_rate = 428741 (inst/sec)
gpgpu_simulation_rate = 648 (cycle/sec)
Finished CUDA kernel calls                        
computing extra atoms on CPU


